C:\Users\eirik\OneDrive - Norwegian University of Life Sciences\Documents\Masteroppgave\glycam\cellulose\pdb\DGlcpb1-4DGlcpb1-4DGlcpb1-4DGlcpb1-4DGlcpb1-4DGlcpb1-4DGlcpb1-OH_structure_min-gas.pdb DGlcpb1-4DGlcpb1-4DGlcpb1-4DGlcpb1-4DGlcpb1-4DGlcpb1-4DGlcpb1-OH_structure_min-gas.pdb
 OpenBabel01122616533D

150156  0  0  1  0  0  0  0  0999 V2000
   -3.6830    8.9230   -1.1770 H   0  0  0  0  0  0  0  0  0  0  0  0
   -4.1200    9.2500   -1.9670 O   0  0  0  0  0  0  0  0  0  0  0  0
   -3.7830   10.6300   -2.1640 C   0  0  2  0  0  0  0  0  0  0  0  0
   -2.7020   10.7150   -2.2810 H   0  0  0  0  0  0  0  0  0  0  0  0
   -4.2000   11.4370   -1.0010 O   0  0  0  0  0  0  0  0  0  0  0  0
   -3.9660   12.8950   -1.0930 C   0  0  2  0  0  0  0  0  0  0  0  0
   -2.8990   13.0710   -1.2480 H   0  0  0  0  0  0  0  0  0  0  0  0
   -4.3920   13.5340    0.2350 C   0  0  0  0  0  0  0  0  0  0  0  0
   -5.4350   13.3020    0.4570 H   0  0  0  0  0  0  0  0  0  0  0  0
   -4.2810   14.6170    0.1910 H   0  0  0  0  0  0  0  0  0  0  0  0
   -3.5560   13.0260    1.2830 O   0  0  0  0  0  0  0  0  0  0  0  0
   -3.6480   12.0720    1.3320 H   0  0  0  0  0  0  0  0  0  0  0  0
   -4.7450   13.4260   -2.3100 C   0  0  2  0  0  0  0  0  0  0  0  0
   -5.8170   13.3210   -2.1200 H   0  0  0  0  0  0  0  0  0  0  0  0
   -3.9560    9.5640   -4.4870 H   0  0  0  0  0  0  0  0  0  0  0  0
   -4.3820   12.6630   -3.5950 C   0  0  2  0  0  0  0  0  0  0  0  0
   -3.3620   12.9190   -3.8890 H   0  0  0  0  0  0  0  0  0  0  0  0
   -5.2890   13.0810   -4.6300 O   0  0  0  0  0  0  0  0  0  0  0  0
   -5.0730   12.6250   -5.4470 H   0  0  0  0  0  0  0  0  0  0  0  0
   -4.5090   11.1380   -3.4250 C   0  0  1  0  0  0  0  0  0  0  0  0
   -5.5620   10.8530   -3.3840 H   0  0  0  0  0  0  0  0  0  0  0  0
   -3.8910   10.5180   -4.5670 O   0  0  0  0  0  0  0  0  0  0  0  0
   -4.3890   14.8450   -2.5060 O   0  0  0  0  0  0  0  0  0  0  0  0
   -5.4640   15.8180   -2.2620 C   0  0  2  0  0  0  0  0  0  0  0  0
   -5.9430   15.5940   -1.3070 H   0  0  0  0  0  0  0  0  0  0  0  0
   -6.4770   15.7720   -3.3360 O   0  0  0  0  0  0  0  0  0  0  0  0
   -7.5910   16.7400   -3.2270 C   0  0  2  0  0  0  0  0  0  0  0  0
   -8.1050   16.5800   -2.2770 H   0  0  0  0  0  0  0  0  0  0  0  0
   -8.5700   16.4700   -4.3770 C   0  0  0  0  0  0  0  0  0  0  0  0
   -8.0660   16.5520   -5.3400 H   0  0  0  0  0  0  0  0  0  0  0  0
   -9.3920   17.1850   -4.3550 H   0  0  0  0  0  0  0  0  0  0  0  0
   -9.1060   15.1480   -4.2300 O   0  0  0  0  0  0  0  0  0  0  0  0
   -8.3900   14.5090   -4.2490 H   0  0  0  0  0  0  0  0  0  0  0  0
   -6.9880   18.1560   -3.2440 C   0  0  2  0  0  0  0  0  0  0  0  0
   -6.5380   18.3380   -4.2240 H   0  0  0  0  0  0  0  0  0  0  0  0
   -3.3670   16.6240   -1.0540 H   0  0  0  0  0  0  0  0  0  0  0  0
   -5.9140   18.3300   -2.1570 C   0  0  2  0  0  0  0  0  0  0  0  0
   -6.3910   18.3300   -1.1740 H   0  0  0  0  0  0  0  0  0  0  0  0
   -5.2700   19.5980   -2.3690 O   0  0  0  0  0  0  0  0  0  0  0  0
   -4.6000   19.7330   -1.6940 H   0  0  0  0  0  0  0  0  0  0  0  0
   -4.8450   17.2250   -2.2210 C   0  0  1  0  0  0  0  0  0  0  0  0
   -4.2100   17.3680   -3.0970 H   0  0  0  0  0  0  0  0  0  0  0  0
   -4.0400   17.3080   -1.0320 O   0  0  0  0  0  0  0  0  0  0  0  0
   -8.0670   19.1290   -2.9820 O   0  0  0  0  0  0  0  0  0  0  0  0
   -8.4490   19.9800   -4.1190 C   0  0  2  0  0  0  0  0  0  0  0  0
   -8.6140   19.3530   -4.9980 H   0  0  0  0  0  0  0  0  0  0  0  0
   -7.3960   20.9710   -4.4200 O   0  0  0  0  0  0  0  0  0  0  0  0
   -7.6790   21.9060   -5.5310 C   0  0  2  0  0  0  0  0  0  0  0  0
   -7.8710   21.3270   -6.4370 H   0  0  0  0  0  0  0  0  0  0  0  0
   -6.4370   22.7780   -5.7470 C   0  0  0  0  0  0  0  0  0  0  0  0
   -6.1790   23.3160   -4.8340 H   0  0  0  0  0  0  0  0  0  0  0  0
   -6.6150   23.5060   -6.5390 H   0  0  0  0  0  0  0  0  0  0  0  0
   -5.3400   21.9380   -6.1320 O   0  0  0  0  0  0  0  0  0  0  0  0
   -5.1750   21.2920   -5.4410 H   0  0  0  0  0  0  0  0  0  0  0  0
   -8.9450   22.7030   -5.1640 C   0  0  2  0  0  0  0  0  0  0  0  0
   -8.7260   23.3390   -4.3020 H   0  0  0  0  0  0  0  0  0  0  0  0
  -10.5790   19.0900   -3.0300 H   0  0  0  0  0  0  0  0  0  0  0  0
  -10.1230   21.7760   -4.8190 C   0  0  2  0  0  0  0  0  0  0  0  0
  -10.4680   21.2760   -5.7260 H   0  0  0  0  0  0  0  0  0  0  0  0
  -11.1870   22.5880   -4.2940 O   0  0  0  0  0  0  0  0  0  0  0  0
  -11.9390   22.0310   -4.0800 H   0  0  0  0  0  0  0  0  0  0  0  0
   -9.7430   20.7270   -3.7580 C   0  0  1  0  0  0  0  0  0  0  0  0
   -9.6270   21.2050   -2.7830 H   0  0  0  0  0  0  0  0  0  0  0  0
  -10.8000   19.7540   -3.6880 O   0  0  0  0  0  0  0  0  0  0  0  0
   -9.3360   23.5220   -6.3280 O   0  0  0  0  0  0  0  0  0  0  0  0
   -9.1390   24.9730   -6.1830 C   0  0  2  0  0  0  0  0  0  0  0  0
   -8.1300   25.1640   -5.8140 H   0  0  0  0  0  0  0  0  0  0  0  0
  -10.1190   25.5520   -5.2420 O   0  0  0  0  0  0  0  0  0  0  0  0
  -10.0400   27.0150   -5.0390 C   0  0  2  0  0  0  0  0  0  0  0  0
   -9.0380   27.2680   -4.6850 H   0  0  0  0  0  0  0  0  0  0  0  0
  -11.0630   27.4020   -3.9640 C   0  0  0  0  0  0  0  0  0  0  0  0
  -12.0670   27.0970   -4.2590 H   0  0  0  0  0  0  0  0  0  0  0  0
  -11.0610   28.4810   -3.8060 H   0  0  0  0  0  0  0  0  0  0  0  0
  -10.7100   26.7560   -2.7330 O   0  0  0  0  0  0  0  0  0  0  0  0
  -10.7080   25.8050   -2.8610 H   0  0  0  0  0  0  0  0  0  0  0  0
  -10.2790   27.6930   -6.4010 C   0  0  2  0  0  0  0  0  0  0  0  0
  -11.3080   27.5010   -6.7170 H   0  0  0  0  0  0  0  0  0  0  0  0
   -8.2160   24.2580   -8.4530 H   0  0  0  0  0  0  0  0  0  0  0  0
   -9.3150   27.1660   -7.4770 C   0  0  2  0  0  0  0  0  0  0  0  0
   -8.3040   27.5190   -7.2620 H   0  0  0  0  0  0  0  0  0  0  0  0
   -9.7370   27.6940   -8.7470 O   0  0  0  0  0  0  0  0  0  0  0  0
   -9.1430   27.3850   -9.4350 H   0  0  0  0  0  0  0  0  0  0  0  0
   -9.3260   25.6290   -7.5610 C   0  0  1  0  0  0  0  0  0  0  0  0
  -10.2620   25.2840   -8.0040 H   0  0  0  0  0  0  0  0  0  0  0  0
   -8.2260   25.2160   -8.3900 O   0  0  0  0  0  0  0  0  0  0  0  0
  -10.0460   29.1430   -6.2500 O   0  0  0  0  0  0  0  0  0  0  0  0
  -11.2440   29.9930   -6.3250 C   0  0  2  0  0  0  0  0  0  0  0  0
  -12.0150   29.5870   -5.6680 H   0  0  0  0  0  0  0  0  0  0  0  0
  -11.7660   30.0570   -7.7050 O   0  0  0  0  0  0  0  0  0  0  0  0
  -12.9580   30.9100   -7.9110 C   0  0  2  0  0  0  0  0  0  0  0  0
  -13.7610   30.5550   -7.2620 H   0  0  0  0  0  0  0  0  0  0  0  0
  -13.3970   30.7680   -9.3740 C   0  0  0  0  0  0  0  0  0  0  0  0
  -12.5880   31.0470  -10.0490 H   0  0  0  0  0  0  0  0  0  0  0  0
  -14.2550   31.4090   -9.5780 H   0  0  0  0  0  0  0  0  0  0  0  0
  -13.7730   29.4050   -9.6160 O   0  0  0  0  0  0  0  0  0  0  0  0
  -13.0240   28.8310   -9.4380 H   0  0  0  0  0  0  0  0  0  0  0  0
  -12.5840   32.3490   -7.5110 C   0  0  2  0  0  0  0  0  0  0  0  0
  -11.8360   32.7290   -8.2130 H   0  0  0  0  0  0  0  0  0  0  0  0
   -9.8550   30.7320   -4.3150 H   0  0  0  0  0  0  0  0  0  0  0  0
  -12.0130   32.4150   -6.0840 C   0  0  2  0  0  0  0  0  0  0  0  0
  -12.8120   32.2190   -5.3660 H   0  0  0  0  0  0  0  0  0  0  0  0
  -11.5030   33.7430   -5.8720 O   0  0  0  0  0  0  0  0  0  0  0  0
  -11.1490   33.8100   -4.9820 H   0  0  0  0  0  0  0  0  0  0  0  0
  -10.8640   31.4130   -5.8730 C   0  0  1  0  0  0  0  0  0  0  0  0
   -9.9750   31.7410   -6.4140 H   0  0  0  0  0  0  0  0  0  0  0  0
  -10.5700   31.3550   -4.4660 O   0  0  0  0  0  0  0  0  0  0  0  0
  -13.8040   33.1770   -7.5530 O   0  0  0  0  0  0  0  0  0  0  0  0
  -13.8590   34.1810   -8.6270 C   0  0  2  0  0  0  0  0  0  0  0  0
  -13.6060   33.7060   -9.5770 H   0  0  0  0  0  0  0  0  0  0  0  0
  -12.9150   35.2880   -8.3700 O   0  0  0  0  0  0  0  0  0  0  0  0
  -12.9050   36.3810   -9.3670 C   0  0  2  0  0  0  0  0  0  0  0  0
  -12.6760   35.9600  -10.3490 H   0  0  0  0  0  0  0  0  0  0  0  0
  -11.7980   37.3690   -8.9770 C   0  0  0  0  0  0  0  0  0  0  0  0
  -11.9620   37.7540   -7.9700 H   0  0  0  0  0  0  0  0  0  0  0  0
  -11.7760   38.2100   -9.6700 H   0  0  0  0  0  0  0  0  0  0  0  0
  -10.5340   36.6950   -9.0310 O   0  0  0  0  0  0  0  0  0  0  0  0
  -10.5420   35.9510   -8.4240 H   0  0  0  0  0  0  0  0  0  0  0  0
  -14.3140   37.0010   -9.3990 C   0  0  2  0  0  0  0  0  0  0  0  0
  -14.5110   37.4830   -8.4380 H   0  0  0  0  0  0  0  0  0  0  0  0
  -16.0940   32.9500   -8.5670 H   0  0  0  0  0  0  0  0  0  0  0  0
  -15.3960   35.9400   -9.6610 C   0  0  2  0  0  0  0  0  0  0  0  0
  -15.3150   35.5860  -10.6910 H   0  0  0  0  0  0  0  0  0  0  0  0
  -16.6800   36.5610   -9.4750 O   0  0  0  0  0  0  0  0  0  0  0  0
  -17.3730   35.9170   -9.6410 H   0  0  0  0  0  0  0  0  0  0  0  0
  -15.2860   34.7500   -8.6900 C   0  0  1  0  0  0  0  0  0  0  0  0
  -15.6000   35.0530   -7.6890 H   0  0  0  0  0  0  0  0  0  0  0  0
  -16.1500   33.7020   -9.1610 O   0  0  0  0  0  0  0  0  0  0  0  0
  -14.3670   37.9890  -10.4940 O   0  0  0  0  0  0  0  0  0  0  0  0
  -14.4300   39.3990  -10.0780 C   0  0  2  0  0  0  0  0  0  0  0  0
  -13.6630   39.5860   -9.3240 H   0  0  0  0  0  0  0  0  0  0  0  0
  -15.7540   39.7300   -9.5180 O   0  0  0  0  0  0  0  0  0  0  0  0
  -15.9400   41.1270   -9.0690 C   0  0  2  0  0  0  0  0  0  0  0  0
  -15.1910   41.3500   -8.3050 H   0  0  0  0  0  0  0  0  0  0  0  0
  -17.3390   41.2380   -8.4480 C   0  0  0  0  0  0  0  0  0  0  0  0
  -18.1040   40.9300   -9.1620 H   0  0  0  0  0  0  0  0  0  0  0  0
  -17.5430   42.2660   -8.1460 H   0  0  0  0  0  0  0  0  0  0  0  0
  -17.4020   40.3940   -7.2900 O   0  0  0  0  0  0  0  0  0  0  0  0
  -17.2230   39.4870   -7.5460 H   0  0  0  0  0  0  0  0  0  0  0  0
  -15.7200   42.0530  -10.2820 C   0  0  1  0  0  0  0  0  0  0  0  0
  -16.5460   41.9310  -10.9850 H   0  0  0  0  0  0  0  0  0  0  0  0
  -15.7000   43.4100   -9.8040 O   0  0  0  0  0  0  0  0  0  0  0  0
  -15.5670   44.0070  -10.5440 H   0  0  0  0  0  0  0  0  0  0  0  0
  -14.3800   41.7810  -10.9930 C   0  0  2  0  0  0  0  0  0  0  0  0
  -13.5550   42.1360  -10.3700 H   0  0  0  0  0  0  0  0  0  0  0  0
  -14.3790   42.5020  -12.2380 O   0  0  0  0  0  0  0  0  0  0  0  0
  -13.5490   42.3470  -12.6960 H   0  0  0  0  0  0  0  0  0  0  0  0
  -14.1820   40.2870  -11.3070 C   0  0  1  0  0  0  0  0  0  0  0  0
  -14.8490   39.9810  -12.1160 H   0  0  0  0  0  0  0  0  0  0  0  0
  -12.8180   40.0890  -11.7180 O   0  0  0  0  0  0  0  0  0  0  0  0
  -12.6760   39.1600  -11.9160 H   0  0  0  0  0  0  0  0  0  0  0  0
  2  1  1  0  0  0  0
  3  4  1  6  0  0  0
  3  2  1  0  0  0  0
  3  5  1  0  0  0  0
  6  7  1  6  0  0  0
  6  5  1  0  0  0  0
  6  8  1  0  0  0  0
  8  9  1  0  0  0  0
  8 11  1  0  0  0  0
 10  8  1  0  0  0  0
 11 12  1  0  0  0  0
 13 14  1  1  0  0  0
 13  6  1  0  0  0  0
 16 17  1  6  0  0  0
 16 20  1  0  0  0  0
 16 13  1  0  0  0  0
 18 16  1  0  0  0  0
 19 18  1  0  0  0  0
 20 21  1  1  0  0  0
 20  3  1  0  0  0  0
 22 15  1  0  0  0  0
 22 20  1  0  0  0  0
 23 13  1  0  0  0  0
 23 24  1  0  0  0  0
 24 41  1  0  0  0  0
 24 25  1  1  0  0  0
 26 27  1  0  0  0  0
 26 24  1  0  0  0  0
 27 28  1  1  0  0  0
 29 31  1  0  0  0  0
 29 32  1  0  0  0  0
 29 27  1  0  0  0  0
 30 29  1  0  0  0  0
 33 32  1  0  0  0  0
 34 35  1  6  0  0  0
 34 27  1  0  0  0  0
 34 44  1  0  0  0  0
 34 37  1  0  0  0  0
 36 43  1  0  0  0  0
 37 38  1  1  0  0  0
 39 37  1  0  0  0  0
 39 40  1  0  0  0  0
 41 42  1  6  0  0  0
 41 37  1  0  0  0  0
 41 43  1  0  0  0  0
 45 46  1  6  0  0  0
 45 62  1  0  0  0  0
 45 44  1  0  0  0  0
 47 45  1  0  0  0  0
 48 49  1  6  0  0  0
 48 55  1  0  0  0  0
 48 47  1  0  0  0  0
 50 48  1  0  0  0  0
 50 51  1  0  0  0  0
 52 50  1  0  0  0  0
 53 50  1  0  0  0  0
 53 54  1  0  0  0  0
 55 58  1  0  0  0  0
 55 56  1  1  0  0  0
 58 59  1  6  0  0  0
 58 60  1  0  0  0  0
 58 62  1  0  0  0  0
 60 61  1  0  0  0  0
 62 64  1  0  0  0  0
 62 63  1  1  0  0  0
 64 57  1  0  0  0  0
 65 66  1  0  0  0  0
 65 55  1  0  0  0  0
 66 67  1  1  0  0  0
 66 68  1  0  0  0  0
 68 69  1  0  0  0  0
 69 70  1  1  0  0  0
 69 71  1  0  0  0  0
 71 73  1  0  0  0  0
 71 74  1  0  0  0  0
 72 71  1  0  0  0  0
 75 74  1  0  0  0  0
 76 77  1  6  0  0  0
 76 86  1  0  0  0  0
 76 69  1  0  0  0  0
 78 85  1  0  0  0  0
 79 80  1  1  0  0  0
 79 76  1  0  0  0  0
 81 79  1  0  0  0  0
 82 81  1  0  0  0  0
 83 84  1  6  0  0  0
 83 79  1  0  0  0  0
 83 66  1  0  0  0  0
 85 83  1  0  0  0  0
 87 86  1  0  0  0  0
 87104  1  0  0  0  0
 87 88  1  1  0  0  0
 89 87  1  0  0  0  0
 90 89  1  0  0  0  0
 90 97  1  0  0  0  0
 90 91  1  1  0  0  0
 92 90  1  0  0  0  0
 93 92  1  0  0  0  0
 94 92  1  0  0  0  0
 95 96  1  0  0  0  0
 95 92  1  0  0  0  0
 97 98  1  6  0  0  0
 97100  1  0  0  0  0
100104  1  0  0  0  0
100102  1  0  0  0  0
100101  1  1  0  0  0
102103  1  0  0  0  0
104105  1  6  0  0  0
104106  1  0  0  0  0
106 99  1  0  0  0  0
107 97  1  0  0  0  0
108109  1  6  0  0  0
108110  1  0  0  0  0
108107  1  0  0  0  0
111112  1  6  0  0  0
111113  1  0  0  0  0
111110  1  0  0  0  0
113114  1  0  0  0  0
115113  1  0  0  0  0
116113  1  0  0  0  0
116117  1  0  0  0  0
118111  1  0  0  0  0
118119  1  1  0  0  0
121122  1  6  0  0  0
121123  1  0  0  0  0
121118  1  0  0  0  0
121125  1  0  0  0  0
124123  1  0  0  0  0
125108  1  0  0  0  0
125126  1  1  0  0  0
127125  1  0  0  0  0
127120  1  0  0  0  0
128129  1  0  0  0  0
128118  1  0  0  0  0
129131  1  0  0  0  0
129130  1  1  0  0  0
131132  1  0  0  0  0
132134  1  0  0  0  0
132133  1  1  0  0  0
134136  1  0  0  0  0
134137  1  0  0  0  0
135134  1  0  0  0  0
138137  1  0  0  0  0
139140  1  6  0  0  0
139141  1  0  0  0  0
139132  1  0  0  0  0
142141  1  0  0  0  0
143144  1  1  0  0  0
143139  1  0  0  0  0
145143  1  0  0  0  0
146145  1  0  0  0  0
147148  1  6  0  0  0
147143  1  0  0  0  0
147129  1  0  0  0  0
149147  1  0  0  0  0
150149  1  0  0  0  0
M  END
