C:\Users\eirik\OneDrive - Norwegian University of Life Sciences\Documents\Masteroppgave\glycam\cellulose\pdb\DGlcpb1-4DGlcpb1-4DGlcpb1-OH_structure_min-gas.pdb DGlcpb1-4DGlcpb1-4DGlcpb1-OH_structure_min-gas.pdb
 OpenBabel01122616513D

 66 68  0  0  1  0  0  0  0  0999 V2000
   -3.7910    9.1180   -1.1960 H   0  0  0  0  0  0  0  0  0  0  0  0
   -4.2280    9.4450   -1.9860 O   0  0  0  0  0  0  0  0  0  0  0  0
   -3.8860   10.8240   -2.1850 C   0  0  2  0  0  0  0  0  0  0  0  0
   -2.8050   10.9050   -2.3030 H   0  0  0  0  0  0  0  0  0  0  0  0
   -4.3020   11.6340   -1.0230 O   0  0  0  0  0  0  0  0  0  0  0  0
   -4.0630   13.0920   -1.1180 C   0  0  2  0  0  0  0  0  0  0  0  0
   -2.9960   13.2640   -1.2720 H   0  0  0  0  0  0  0  0  0  0  0  0
   -4.4880   13.7330    0.2090 C   0  0  0  0  0  0  0  0  0  0  0  0
   -5.5310   13.5040    0.4320 H   0  0  0  0  0  0  0  0  0  0  0  0
   -4.3750   14.8160    0.1630 H   0  0  0  0  0  0  0  0  0  0  0  0
   -3.6540   13.2260    1.2580 O   0  0  0  0  0  0  0  0  0  0  0  0
   -3.7470   12.2720    1.3080 H   0  0  0  0  0  0  0  0  0  0  0  0
   -4.8410   13.6230   -2.3360 C   0  0  2  0  0  0  0  0  0  0  0  0
   -5.9120   13.5220   -2.1450 H   0  0  0  0  0  0  0  0  0  0  0  0
   -4.0630    9.7550   -4.5080 H   0  0  0  0  0  0  0  0  0  0  0  0
   -4.4790   12.8570   -3.6190 C   0  0  2  0  0  0  0  0  0  0  0  0
   -3.4590   13.1100   -3.9130 H   0  0  0  0  0  0  0  0  0  0  0  0
   -5.3850   13.2760   -4.6560 O   0  0  0  0  0  0  0  0  0  0  0  0
   -5.1700   12.8170   -5.4720 H   0  0  0  0  0  0  0  0  0  0  0  0
   -4.6100   11.3320   -3.4470 C   0  0  1  0  0  0  0  0  0  0  0  0
   -5.6650   11.0510   -3.4060 H   0  0  0  0  0  0  0  0  0  0  0  0
   -3.9940   10.7090   -4.5880 O   0  0  0  0  0  0  0  0  0  0  0  0
   -4.4790   15.0410   -2.5320 O   0  0  0  0  0  0  0  0  0  0  0  0
   -5.5560   16.0170   -2.3060 C   0  0  2  0  0  0  0  0  0  0  0  0
   -6.0460   15.7980   -1.3560 H   0  0  0  0  0  0  0  0  0  0  0  0
   -6.5560   15.9660   -3.3920 O   0  0  0  0  0  0  0  0  0  0  0  0
   -7.6690   16.9370   -3.3040 C   0  0  2  0  0  0  0  0  0  0  0  0
   -8.1940   16.7870   -2.3580 H   0  0  0  0  0  0  0  0  0  0  0  0
   -8.6360   16.6590   -4.4620 C   0  0  0  0  0  0  0  0  0  0  0  0
   -8.1200   16.7320   -5.4200 H   0  0  0  0  0  0  0  0  0  0  0  0
   -9.4560   17.3760   -4.4550 H   0  0  0  0  0  0  0  0  0  0  0  0
   -9.1760   15.3390   -4.3100 O   0  0  0  0  0  0  0  0  0  0  0  0
   -8.4600   14.6990   -4.3150 H   0  0  0  0  0  0  0  0  0  0  0  0
   -7.0620   18.3520   -3.3250 C   0  0  2  0  0  0  0  0  0  0  0  0
   -6.5970   18.5230   -4.3000 H   0  0  0  0  0  0  0  0  0  0  0  0
   -3.4740   16.8280   -1.0750 H   0  0  0  0  0  0  0  0  0  0  0  0
   -6.0030   18.5310   -2.2250 C   0  0  2  0  0  0  0  0  0  0  0  0
   -6.4930   18.5390   -1.2490 H   0  0  0  0  0  0  0  0  0  0  0  0
   -5.3530   19.7970   -2.4370 O   0  0  0  0  0  0  0  0  0  0  0  0
   -4.6920   19.9340   -1.7540 H   0  0  0  0  0  0  0  0  0  0  0  0
   -4.9360   17.4230   -2.2660 C   0  0  1  0  0  0  0  0  0  0  0  0
   -4.2880   17.5600   -3.1340 H   0  0  0  0  0  0  0  0  0  0  0  0
   -4.1470   17.5130   -1.0670 O   0  0  0  0  0  0  0  0  0  0  0  0
   -8.1420   19.3300   -3.0890 O   0  0  0  0  0  0  0  0  0  0  0  0
   -8.5100   20.1640   -4.2440 C   0  0  2  0  0  0  0  0  0  0  0  0
   -8.6520   19.5250   -5.1170 H   0  0  0  0  0  0  0  0  0  0  0  0
   -7.4630   21.1620   -4.5350 O   0  0  0  0  0  0  0  0  0  0  0  0
   -7.7240   22.0670   -5.6760 C   0  0  2  0  0  0  0  0  0  0  0  0
   -7.8660   21.4620   -6.5750 H   0  0  0  0  0  0  0  0  0  0  0  0
   -6.4890   22.9590   -5.8600 C   0  0  0  0  0  0  0  0  0  0  0  0
   -6.2690   23.5060   -4.9430 H   0  0  0  0  0  0  0  0  0  0  0  0
   -6.6540   23.6790   -6.6610 H   0  0  0  0  0  0  0  0  0  0  0  0
   -5.3680   22.1330   -6.2040 O   0  0  0  0  0  0  0  0  0  0  0  0
   -5.2150   21.4950   -5.5040 H   0  0  0  0  0  0  0  0  0  0  0  0
   -9.0200   22.8480   -5.3790 C   0  0  1  0  0  0  0  0  0  0  0  0
   -8.8390   23.5560   -4.5680 H   0  0  0  0  0  0  0  0  0  0  0  0
   -9.3810   23.5720   -6.5690 O   0  0  0  0  0  0  0  0  0  0  0  0
  -10.1850   24.0710   -6.4070 H   0  0  0  0  0  0  0  0  0  0  0  0
  -10.1950   21.9190   -5.0150 C   0  0  2  0  0  0  0  0  0  0  0  0
  -10.5320   21.3860   -5.9070 H   0  0  0  0  0  0  0  0  0  0  0  0
  -11.2710   22.7330   -4.5150 O   0  0  0  0  0  0  0  0  0  0  0  0
  -12.0160   22.1730   -4.2840 H   0  0  0  0  0  0  0  0  0  0  0  0
   -9.8160   20.9050   -3.9190 C   0  0  1  0  0  0  0  0  0  0  0  0
   -9.7170   21.4110   -2.9570 H   0  0  0  0  0  0  0  0  0  0  0  0
  -10.8630   19.9230   -3.8330 O   0  0  0  0  0  0  0  0  0  0  0  0
  -10.6430   19.2810   -3.1540 H   0  0  0  0  0  0  0  0  0  0  0  0
  2  1  1  0  0  0  0
  3  4  1  6  0  0  0
  3  2  1  0  0  0  0
  3  5  1  0  0  0  0
  6  7  1  6  0  0  0
  6  5  1  0  0  0  0
  6  8  1  0  0  0  0
  8  9  1  0  0  0  0
  8 11  1  0  0  0  0
 10  8  1  0  0  0  0
 11 12  1  0  0  0  0
 13 14  1  1  0  0  0
 13  6  1  0  0  0  0
 16 17  1  6  0  0  0
 16 20  1  0  0  0  0
 16 13  1  0  0  0  0
 18 16  1  0  0  0  0
 19 18  1  0  0  0  0
 20 21  1  1  0  0  0
 20  3  1  0  0  0  0
 22 15  1  0  0  0  0
 22 20  1  0  0  0  0
 23 13  1  0  0  0  0
 23 24  1  0  0  0  0
 24 41  1  0  0  0  0
 24 25  1  1  0  0  0
 26 27  1  0  0  0  0
 26 24  1  0  0  0  0
 27 28  1  1  0  0  0
 29 31  1  0  0  0  0
 29 32  1  0  0  0  0
 29 27  1  0  0  0  0
 30 29  1  0  0  0  0
 33 32  1  0  0  0  0
 34 35  1  6  0  0  0
 34 27  1  0  0  0  0
 34 44  1  0  0  0  0
 34 37  1  0  0  0  0
 36 43  1  0  0  0  0
 37 38  1  1  0  0  0
 39 37  1  0  0  0  0
 39 40  1  0  0  0  0
 41 42  1  6  0  0  0
 41 37  1  0  0  0  0
 41 43  1  0  0  0  0
 45 46  1  6  0  0  0
 45 63  1  0  0  0  0
 45 44  1  0  0  0  0
 47 45  1  0  0  0  0
 48 49  1  6  0  0  0
 48 55  1  0  0  0  0
 48 47  1  0  0  0  0
 50 48  1  0  0  0  0
 50 51  1  0  0  0  0
 52 50  1  0  0  0  0
 53 50  1  0  0  0  0
 53 54  1  0  0  0  0
 55 59  1  0  0  0  0
 55 56  1  1  0  0  0
 57 58  1  0  0  0  0
 57 55  1  0  0  0  0
 59 60  1  6  0  0  0
 59 61  1  0  0  0  0
 59 63  1  0  0  0  0
 61 62  1  0  0  0  0
 63 65  1  0  0  0  0
 63 64  1  1  0  0  0
 65 66  1  0  0  0  0
M  END
