C:\Users\eirik\OneDrive - Norwegian University of Life Sciences\Documents\Masteroppgave\glycam\cellulose\pdb\DGlcpb1-4DGlcpb1-4DGlcpb1-4DGlcpb1-4DGlcpb1-4DGlcpb1-4DGlcpb1-4DGlcpb1-OH_structure_min-gas.pdb DGlcpb1-4DGlcpb1-4DGlcpb1-4DGlcpb1-4DGlcpb1-4DGlcpb1-4DGlcpb1-4DGlcpb1-OH_structure_min-gas.pdb
 OpenBabel01122616533D

171178  0  0  1  0  0  0  0  0999 V2000
   -3.6600    8.8820   -1.1690 H   0  0  0  0  0  0  0  0  0  0  0  0
   -4.0970    9.2090   -1.9580 O   0  0  0  0  0  0  0  0  0  0  0  0
   -3.7620   10.5890   -2.1530 C   0  0  2  0  0  0  0  0  0  0  0  0
   -2.6800   10.6760   -2.2700 H   0  0  0  0  0  0  0  0  0  0  0  0
   -4.1810   11.3940   -0.9890 O   0  0  0  0  0  0  0  0  0  0  0  0
   -3.9480   12.8530   -1.0800 C   0  0  2  0  0  0  0  0  0  0  0  0
   -2.8820   13.0310   -1.2340 H   0  0  0  0  0  0  0  0  0  0  0  0
   -4.3760   13.4900    0.2490 C   0  0  0  0  0  0  0  0  0  0  0  0
   -5.4190   13.2560    0.4700 H   0  0  0  0  0  0  0  0  0  0  0  0
   -4.2660   14.5730    0.2060 H   0  0  0  0  0  0  0  0  0  0  0  0
   -3.5400   12.9820    1.2970 O   0  0  0  0  0  0  0  0  0  0  0  0
   -3.6310   12.0280    1.3440 H   0  0  0  0  0  0  0  0  0  0  0  0
   -4.7280   13.3840   -2.2970 C   0  0  2  0  0  0  0  0  0  0  0  0
   -5.7990   13.2780   -2.1070 H   0  0  0  0  0  0  0  0  0  0  0  0
   -3.9330    9.5260   -4.4780 H   0  0  0  0  0  0  0  0  0  0  0  0
   -4.3630   12.6230   -3.5820 C   0  0  2  0  0  0  0  0  0  0  0  0
   -3.3430   12.8810   -3.8750 H   0  0  0  0  0  0  0  0  0  0  0  0
   -5.2700   13.0410   -4.6180 O   0  0  0  0  0  0  0  0  0  0  0  0
   -5.0520   12.5870   -5.4350 H   0  0  0  0  0  0  0  0  0  0  0  0
   -4.4870   11.0980   -3.4140 C   0  0  1  0  0  0  0  0  0  0  0  0
   -5.5410   10.8120   -3.3740 H   0  0  0  0  0  0  0  0  0  0  0  0
   -3.8680   10.4810   -4.5570 O   0  0  0  0  0  0  0  0  0  0  0  0
   -4.3730   14.8040   -2.4900 O   0  0  0  0  0  0  0  0  0  0  0  0
   -5.4510   15.7750   -2.2480 C   0  0  2  0  0  0  0  0  0  0  0  0
   -5.9300   15.5500   -1.2940 H   0  0  0  0  0  0  0  0  0  0  0  0
   -6.4620   15.7270   -3.3240 O   0  0  0  0  0  0  0  0  0  0  0  0
   -7.5780   16.6930   -3.2180 C   0  0  2  0  0  0  0  0  0  0  0  0
   -8.0930   16.5330   -2.2680 H   0  0  0  0  0  0  0  0  0  0  0  0
   -8.5540   16.4200   -4.3690 C   0  0  0  0  0  0  0  0  0  0  0  0
   -8.0480   16.5030   -5.3310 H   0  0  0  0  0  0  0  0  0  0  0  0
   -9.3770   17.1350   -4.3480 H   0  0  0  0  0  0  0  0  0  0  0  0
   -9.0880   15.0980   -4.2220 O   0  0  0  0  0  0  0  0  0  0  0  0
   -8.3710   14.4600   -4.2400 H   0  0  0  0  0  0  0  0  0  0  0  0
   -6.9770   18.1100   -3.2340 C   0  0  2  0  0  0  0  0  0  0  0  0
   -6.5240   18.2910   -4.2130 H   0  0  0  0  0  0  0  0  0  0  0  0
   -3.3570   16.5860   -1.0360 H   0  0  0  0  0  0  0  0  0  0  0  0
   -5.9060   18.2860   -2.1450 C   0  0  2  0  0  0  0  0  0  0  0  0
   -6.3840   18.2860   -1.1630 H   0  0  0  0  0  0  0  0  0  0  0  0
   -5.2630   19.5560   -2.3560 O   0  0  0  0  0  0  0  0  0  0  0  0
   -4.5950   19.6920   -1.6790 H   0  0  0  0  0  0  0  0  0  0  0  0
   -4.8340   17.1830   -2.2060 C   0  0  1  0  0  0  0  0  0  0  0  0
   -4.1980   17.3280   -3.0810 H   0  0  0  0  0  0  0  0  0  0  0  0
   -4.0320   17.2680   -1.0160 O   0  0  0  0  0  0  0  0  0  0  0  0
   -8.0580   19.0810   -2.9750 O   0  0  0  0  0  0  0  0  0  0  0  0
   -8.4360   19.9320   -4.1140 C   0  0  2  0  0  0  0  0  0  0  0  0
   -8.6000   19.3050   -4.9920 H   0  0  0  0  0  0  0  0  0  0  0  0
   -7.3820   20.9220   -4.4130 O   0  0  0  0  0  0  0  0  0  0  0  0
   -7.6640   21.8580   -5.5230 C   0  0  2  0  0  0  0  0  0  0  0  0
   -7.8550   21.2810   -6.4300 H   0  0  0  0  0  0  0  0  0  0  0  0
   -6.4200   22.7290   -5.7380 C   0  0  0  0  0  0  0  0  0  0  0  0
   -6.1630   23.2660   -4.8240 H   0  0  0  0  0  0  0  0  0  0  0  0
   -6.5960   23.4580   -6.5290 H   0  0  0  0  0  0  0  0  0  0  0  0
   -5.3240   21.8880   -6.1220 O   0  0  0  0  0  0  0  0  0  0  0  0
   -5.1600   21.2420   -5.4320 H   0  0  0  0  0  0  0  0  0  0  0  0
   -8.9290   22.6560   -5.1560 C   0  0  2  0  0  0  0  0  0  0  0  0
   -8.7100   23.2880   -4.2920 H   0  0  0  0  0  0  0  0  0  0  0  0
  -10.5700   19.0410   -3.0320 H   0  0  0  0  0  0  0  0  0  0  0  0
  -10.1080   21.7290   -4.8160 C   0  0  2  0  0  0  0  0  0  0  0  0
  -10.4510   21.2310   -5.7250 H   0  0  0  0  0  0  0  0  0  0  0  0
  -11.1730   22.5420   -4.2930 O   0  0  0  0  0  0  0  0  0  0  0  0
  -11.9260   21.9840   -4.0820 H   0  0  0  0  0  0  0  0  0  0  0  0
   -9.7320   20.6790   -3.7550 C   0  0  1  0  0  0  0  0  0  0  0  0
   -9.6180   21.1550   -2.7800 H   0  0  0  0  0  0  0  0  0  0  0  0
  -10.7890   19.7060   -3.6890 O   0  0  0  0  0  0  0  0  0  0  0  0
   -9.3160   23.4800   -6.3170 O   0  0  0  0  0  0  0  0  0  0  0  0
   -9.1180   24.9300   -6.1650 C   0  0  2  0  0  0  0  0  0  0  0  0
   -8.1090   25.1180   -5.7950 H   0  0  0  0  0  0  0  0  0  0  0  0
  -10.0970   25.5040   -5.2190 O   0  0  0  0  0  0  0  0  0  0  0  0
  -10.0160   26.9660   -5.0070 C   0  0  2  0  0  0  0  0  0  0  0  0
   -9.0130   27.2140   -4.6520 H   0  0  0  0  0  0  0  0  0  0  0  0
  -11.0370   27.3470   -3.9280 C   0  0  0  0  0  0  0  0  0  0  0  0
  -12.0420   27.0450   -4.2250 H   0  0  0  0  0  0  0  0  0  0  0  0
  -11.0340   28.4250   -3.7640 H   0  0  0  0  0  0  0  0  0  0  0  0
  -10.6850   26.6930   -2.7020 O   0  0  0  0  0  0  0  0  0  0  0  0
  -10.6840   25.7420   -2.8360 H   0  0  0  0  0  0  0  0  0  0  0  0
  -10.2560   27.6520   -6.3640 C   0  0  2  0  0  0  0  0  0  0  0  0
  -11.2850   27.4630   -6.6800 H   0  0  0  0  0  0  0  0  0  0  0  0
   -8.1990   24.2280   -8.4400 H   0  0  0  0  0  0  0  0  0  0  0  0
   -9.2930   27.1310   -7.4450 C   0  0  2  0  0  0  0  0  0  0  0  0
   -8.2820   27.4810   -7.2290 H   0  0  0  0  0  0  0  0  0  0  0  0
   -9.7170   27.6670   -8.7110 O   0  0  0  0  0  0  0  0  0  0  0  0
   -9.1240   27.3610   -9.4010 H   0  0  0  0  0  0  0  0  0  0  0  0
   -9.3060   25.5950   -7.5380 C   0  0  1  0  0  0  0  0  0  0  0  0
  -10.2430   25.2530   -7.9830 H   0  0  0  0  0  0  0  0  0  0  0  0
   -8.2080   25.1850   -8.3720 O   0  0  0  0  0  0  0  0  0  0  0  0
  -10.0210   29.1000   -6.2040 O   0  0  0  0  0  0  0  0  0  0  0  0
  -11.2180   29.9520   -6.2730 C   0  0  2  0  0  0  0  0  0  0  0  0
  -11.9880   29.5450   -5.6150 H   0  0  0  0  0  0  0  0  0  0  0  0
  -11.7440   30.0210   -7.6510 O   0  0  0  0  0  0  0  0  0  0  0  0
  -12.9330   30.8770   -7.8520 C   0  0  2  0  0  0  0  0  0  0  0  0
  -13.7350   30.5230   -7.1990 H   0  0  0  0  0  0  0  0  0  0  0  0
  -13.3790   30.7380   -9.3120 C   0  0  0  0  0  0  0  0  0  0  0  0
  -12.5720   31.0170   -9.9900 H   0  0  0  0  0  0  0  0  0  0  0  0
  -14.2370   31.3800   -9.5130 H   0  0  0  0  0  0  0  0  0  0  0  0
  -13.7570   29.3760   -9.5550 O   0  0  0  0  0  0  0  0  0  0  0  0
  -13.0080   28.8010   -9.3810 H   0  0  0  0  0  0  0  0  0  0  0  0
  -12.5530   32.3140   -7.4500 C   0  0  2  0  0  0  0  0  0  0  0  0
  -11.8040   32.6910   -8.1510 H   0  0  0  0  0  0  0  0  0  0  0  0
   -9.8260   30.6810   -4.2610 H   0  0  0  0  0  0  0  0  0  0  0  0
  -11.9810   32.3750   -6.0230 C   0  0  2  0  0  0  0  0  0  0  0  0
  -12.7800   32.1790   -5.3050 H   0  0  0  0  0  0  0  0  0  0  0  0
  -11.4680   33.7010   -5.8080 O   0  0  0  0  0  0  0  0  0  0  0  0
  -11.1130   33.7650   -4.9180 H   0  0  0  0  0  0  0  0  0  0  0  0
  -10.8350   31.3690   -5.8160 C   0  0  1  0  0  0  0  0  0  0  0  0
   -9.9450   31.6980   -6.3570 H   0  0  0  0  0  0  0  0  0  0  0  0
  -10.5390   31.3060   -4.4100 O   0  0  0  0  0  0  0  0  0  0  0  0
  -13.7690   33.1490   -7.4910 O   0  0  0  0  0  0  0  0  0  0  0  0
  -13.8240   34.1420   -8.5740 C   0  0  2  0  0  0  0  0  0  0  0  0
  -13.5770   33.6570   -9.5200 H   0  0  0  0  0  0  0  0  0  0  0  0
  -12.8760   35.2480   -8.3320 O   0  0  0  0  0  0  0  0  0  0  0  0
  -12.8630   36.3270   -9.3440 C   0  0  2  0  0  0  0  0  0  0  0  0
  -12.6350   35.8930  -10.3200 H   0  0  0  0  0  0  0  0  0  0  0  0
  -11.7550   37.3190   -8.9670 C   0  0  0  0  0  0  0  0  0  0  0  0
  -11.9180   37.7160   -7.9640 H   0  0  0  0  0  0  0  0  0  0  0  0
  -11.7340   38.1530   -9.6700 H   0  0  0  0  0  0  0  0  0  0  0  0
  -10.4910   36.6440   -9.0140 O   0  0  0  0  0  0  0  0  0  0  0  0
  -10.4990   35.9080   -8.3990 H   0  0  0  0  0  0  0  0  0  0  0  0
  -14.2700   36.9510   -9.3860 C   0  0  2  0  0  0  0  0  0  0  0  0
  -14.4630   37.4520   -8.4330 H   0  0  0  0  0  0  0  0  0  0  0  0
  -16.0650   32.9220   -8.4840 H   0  0  0  0  0  0  0  0  0  0  0  0
  -15.3570   35.8910   -9.6260 C   0  0  2  0  0  0  0  0  0  0  0  0
  -15.2820   35.5210  -10.6510 H   0  0  0  0  0  0  0  0  0  0  0  0
  -16.6380   36.5200   -9.4450 O   0  0  0  0  0  0  0  0  0  0  0  0
  -17.3340   35.8770   -9.6000 H   0  0  0  0  0  0  0  0  0  0  0  0
  -15.2490   34.7160   -8.6380 C   0  0  1  0  0  0  0  0  0  0  0  0
  -15.5570   35.0360   -7.6400 H   0  0  0  0  0  0  0  0  0  0  0  0
  -16.1200   33.6650   -9.0890 O   0  0  0  0  0  0  0  0  0  0  0  0
  -14.3190   37.9180  -10.5000 O   0  0  0  0  0  0  0  0  0  0  0  0
  -14.4100   39.3340  -10.1130 C   0  0  2  0  0  0  0  0  0  0  0  0
  -13.6460   39.5520   -9.3650 H   0  0  0  0  0  0  0  0  0  0  0  0
  -15.7400   39.6500   -9.5560 O   0  0  0  0  0  0  0  0  0  0  0  0
  -15.9650   41.0580   -9.1630 C   0  0  2  0  0  0  0  0  0  0  0  0
  -15.2110   41.3420   -8.4250 H   0  0  0  0  0  0  0  0  0  0  0  0
  -17.3540   41.1560   -8.5200 C   0  0  0  0  0  0  0  0  0  0  0  0
  -18.1240   40.8110   -9.2110 H   0  0  0  0  0  0  0  0  0  0  0  0
  -17.5740   42.1870   -8.2430 H   0  0  0  0  0  0  0  0  0  0  0  0
  -17.3770   40.3460   -7.3370 O   0  0  0  0  0  0  0  0  0  0  0  0
  -17.1830   39.4350   -7.5700 H   0  0  0  0  0  0  0  0  0  0  0  0
  -15.7940   41.9300  -10.4200 C   0  0  2  0  0  0  0  0  0  0  0  0
  -16.5930   41.6920  -11.1280 H   0  0  0  0  0  0  0  0  0  0  0  0
  -12.6230   39.1100  -11.9220 H   0  0  0  0  0  0  0  0  0  0  0  0
  -14.4350   41.6900  -11.0980 C   0  0  2  0  0  0  0  0  0  0  0  0
  -13.6400   42.0970  -10.4690 H   0  0  0  0  0  0  0  0  0  0  0  0
  -14.4400   42.3830  -12.3590 O   0  0  0  0  0  0  0  0  0  0  0  0
  -13.5960   42.2540  -12.7970 H   0  0  0  0  0  0  0  0  0  0  0  0
  -14.1780   40.1960  -11.3650 C   0  0  1  0  0  0  0  0  0  0  0  0
  -14.8220   39.8440  -12.1740 H   0  0  0  0  0  0  0  0  0  0  0  0
  -12.8020   40.0380  -11.7510 O   0  0  0  0  0  0  0  0  0  0  0  0
  -15.8630   43.3490  -10.0200 O   0  0  0  0  0  0  0  0  0  0  0  0
  -17.0760   44.0700  -10.4380 C   0  0  2  0  0  0  0  0  0  0  0  0
  -17.9540   43.4750  -10.1820 H   0  0  0  0  0  0  0  0  0  0  0  0
  -17.0680   44.3280  -11.8910 O   0  0  0  0  0  0  0  0  0  0  0  0
  -18.2390   45.0550  -12.4290 C   0  0  2  0  0  0  0  0  0  0  0  0
  -19.1400   44.4830  -12.1980 H   0  0  0  0  0  0  0  0  0  0  0  0
  -18.0760   45.1420  -13.9530 C   0  0  0  0  0  0  0  0  0  0  0  0
  -17.1350   45.6270  -14.2130 H   0  0  0  0  0  0  0  0  0  0  0  0
  -18.8930   45.7160  -14.3920 H   0  0  0  0  0  0  0  0  0  0  0  0
  -18.0960   43.8160  -14.4990 O   0  0  0  0  0  0  0  0  0  0  0  0
  -17.3800   43.3030  -14.1170 H   0  0  0  0  0  0  0  0  0  0  0  0
  -18.3130   46.4270  -11.7290 C   0  0  1  0  0  0  0  0  0  0  0  0
  -17.4840   47.0520  -12.0680 H   0  0  0  0  0  0  0  0  0  0  0  0
  -19.5570   47.0450  -12.1010 O   0  0  0  0  0  0  0  0  0  0  0  0
  -19.6250   47.9050  -11.6780 H   0  0  0  0  0  0  0  0  0  0  0  0
  -18.2840   46.3040  -10.1930 C   0  0  2  0  0  0  0  0  0  0  0  0
  -19.2340   45.8950   -9.8390 H   0  0  0  0  0  0  0  0  0  0  0  0
  -18.1020   47.6210   -9.6410 O   0  0  0  0  0  0  0  0  0  0  0  0
  -18.0840   47.5670   -8.6830 H   0  0  0  0  0  0  0  0  0  0  0  0
  -17.1250   45.4180   -9.7020 C   0  0  1  0  0  0  0  0  0  0  0  0
  -16.1730   45.9370   -9.8320 H   0  0  0  0  0  0  0  0  0  0  0  0
  -17.3280   45.1420   -8.3050 O   0  0  0  0  0  0  0  0  0  0  0  0
  -16.6140   44.5880   -7.9820 H   0  0  0  0  0  0  0  0  0  0  0  0
  2  1  1  0  0  0  0
  3  4  1  6  0  0  0
  3  2  1  0  0  0  0
  3  5  1  0  0  0  0
  6  7  1  6  0  0  0
  6  5  1  0  0  0  0
  6  8  1  0  0  0  0
  8  9  1  0  0  0  0
  8 11  1  0  0  0  0
 10  8  1  0  0  0  0
 11 12  1  0  0  0  0
 13 14  1  1  0  0  0
 13  6  1  0  0  0  0
 16 17  1  6  0  0  0
 16 20  1  0  0  0  0
 16 13  1  0  0  0  0
 18 16  1  0  0  0  0
 19 18  1  0  0  0  0
 20 21  1  1  0  0  0
 20  3  1  0  0  0  0
 22 15  1  0  0  0  0
 22 20  1  0  0  0  0
 23 13  1  0  0  0  0
 23 24  1  0  0  0  0
 24 41  1  0  0  0  0
 24 25  1  1  0  0  0
 26 27  1  0  0  0  0
 26 24  1  0  0  0  0
 27 28  1  1  0  0  0
 29 31  1  0  0  0  0
 29 32  1  0  0  0  0
 29 27  1  0  0  0  0
 30 29  1  0  0  0  0
 33 32  1  0  0  0  0
 34 35  1  6  0  0  0
 34 27  1  0  0  0  0
 34 44  1  0  0  0  0
 34 37  1  0  0  0  0
 36 43  1  0  0  0  0
 37 38  1  1  0  0  0
 39 37  1  0  0  0  0
 39 40  1  0  0  0  0
 41 42  1  6  0  0  0
 41 37  1  0  0  0  0
 41 43  1  0  0  0  0
 45 46  1  6  0  0  0
 45 62  1  0  0  0  0
 45 44  1  0  0  0  0
 47 45  1  0  0  0  0
 48 49  1  6  0  0  0
 48 55  1  0  0  0  0
 48 47  1  0  0  0  0
 50 48  1  0  0  0  0
 50 51  1  0  0  0  0
 52 50  1  0  0  0  0
 53 50  1  0  0  0  0
 53 54  1  0  0  0  0
 55 58  1  0  0  0  0
 55 56  1  1  0  0  0
 58 59  1  6  0  0  0
 58 60  1  0  0  0  0
 58 62  1  0  0  0  0
 60 61  1  0  0  0  0
 62 64  1  0  0  0  0
 62 63  1  1  0  0  0
 64 57  1  0  0  0  0
 65 66  1  0  0  0  0
 65 55  1  0  0  0  0
 66 67  1  1  0  0  0
 66 68  1  0  0  0  0
 68 69  1  0  0  0  0
 69 70  1  1  0  0  0
 69 71  1  0  0  0  0
 71 73  1  0  0  0  0
 71 74  1  0  0  0  0
 72 71  1  0  0  0  0
 75 74  1  0  0  0  0
 76 77  1  6  0  0  0
 76 86  1  0  0  0  0
 76 69  1  0  0  0  0
 78 85  1  0  0  0  0
 79 80  1  1  0  0  0
 79 76  1  0  0  0  0
 81 79  1  0  0  0  0
 82 81  1  0  0  0  0
 83 84  1  6  0  0  0
 83 79  1  0  0  0  0
 83 66  1  0  0  0  0
 85 83  1  0  0  0  0
 87 86  1  0  0  0  0
 87104  1  0  0  0  0
 87 88  1  1  0  0  0
 89 87  1  0  0  0  0
 90 89  1  0  0  0  0
 90 97  1  0  0  0  0
 90 91  1  1  0  0  0
 92 90  1  0  0  0  0
 93 92  1  0  0  0  0
 94 92  1  0  0  0  0
 95 96  1  0  0  0  0
 95 92  1  0  0  0  0
 97 98  1  6  0  0  0
 97100  1  0  0  0  0
100104  1  0  0  0  0
100102  1  0  0  0  0
100101  1  1  0  0  0
102103  1  0  0  0  0
104105  1  6  0  0  0
104106  1  0  0  0  0
106 99  1  0  0  0  0
107 97  1  0  0  0  0
108109  1  6  0  0  0
108110  1  0  0  0  0
108107  1  0  0  0  0
111112  1  6  0  0  0
111113  1  0  0  0  0
111110  1  0  0  0  0
113114  1  0  0  0  0
115113  1  0  0  0  0
116113  1  0  0  0  0
116117  1  0  0  0  0
118111  1  0  0  0  0
118119  1  1  0  0  0
121122  1  6  0  0  0
121123  1  0  0  0  0
121118  1  0  0  0  0
121125  1  0  0  0  0
124123  1  0  0  0  0
125108  1  0  0  0  0
125126  1  1  0  0  0
127125  1  0  0  0  0
127120  1  0  0  0  0
128129  1  0  0  0  0
128118  1  0  0  0  0
129131  1  0  0  0  0
129130  1  1  0  0  0
131132  1  0  0  0  0
132134  1  0  0  0  0
132133  1  1  0  0  0
134136  1  0  0  0  0
134137  1  0  0  0  0
135134  1  0  0  0  0
138137  1  0  0  0  0
139140  1  6  0  0  0
139149  1  0  0  0  0
139132  1  0  0  0  0
141148  1  0  0  0  0
142143  1  1  0  0  0
142139  1  0  0  0  0
144142  1  0  0  0  0
145144  1  0  0  0  0
146147  1  6  0  0  0
146142  1  0  0  0  0
146129  1  0  0  0  0
148146  1  0  0  0  0
150151  1  1  0  0  0
150149  1  0  0  0  0
150168  1  0  0  0  0
152150  1  0  0  0  0
153154  1  1  0  0  0
153152  1  0  0  0  0
153160  1  0  0  0  0
155153  1  0  0  0  0
156155  1  0  0  0  0
157155  1  0  0  0  0
158159  1  0  0  0  0
158155  1  0  0  0  0
160161  1  6  0  0  0
160164  1  0  0  0  0
162160  1  0  0  0  0
162163  1  0  0  0  0
164165  1  1  0  0  0
164168  1  0  0  0  0
164166  1  0  0  0  0
166167  1  0  0  0  0
168169  1  6  0  0  0
168170  1  0  0  0  0
170171  1  0  0  0  0
M  END
