C:\Users\eirik\OneDrive - Norwegian University of Life Sciences\Documents\Masteroppgave\glycam\cellulose\pdb\DGlcpb1-4DGlcpb1-4DGlcpb1-4DGlcpb1-4DGlcpb1-4DGlcpb1-OH_structure_min-gas.pdb DGlcpb1-4DGlcpb1-4DGlcpb1-4DGlcpb1-4DGlcpb1-4DGlcpb1-OH_structure_min-gas.pdb
 OpenBabel01122616523D

129134  0  0  1  0  0  0  0  0999 V2000
   -3.7060    8.9690   -1.1840 H   0  0  0  0  0  0  0  0  0  0  0  0
   -4.1430    9.2940   -1.9740 O   0  0  0  0  0  0  0  0  0  0  0  0
   -3.8030   10.6730   -2.1750 C   0  0  2  0  0  0  0  0  0  0  0  0
   -2.7220   10.7560   -2.2930 H   0  0  0  0  0  0  0  0  0  0  0  0
   -4.2190   11.4840   -1.0140 O   0  0  0  0  0  0  0  0  0  0  0  0
   -3.9820   12.9420   -1.1100 C   0  0  2  0  0  0  0  0  0  0  0  0
   -2.9150   13.1160   -1.2660 H   0  0  0  0  0  0  0  0  0  0  0  0
   -4.4070   13.5840    0.2160 C   0  0  0  0  0  0  0  0  0  0  0  0
   -5.4500   13.3550    0.4400 H   0  0  0  0  0  0  0  0  0  0  0  0
   -4.2930   14.6670    0.1700 H   0  0  0  0  0  0  0  0  0  0  0  0
   -3.5720   13.0780    1.2660 O   0  0  0  0  0  0  0  0  0  0  0  0
   -3.6650   12.1240    1.3170 H   0  0  0  0  0  0  0  0  0  0  0  0
   -4.7620   13.4700   -2.3280 C   0  0  2  0  0  0  0  0  0  0  0  0
   -5.8330   13.3680   -2.1370 H   0  0  0  0  0  0  0  0  0  0  0  0
   -3.9790    9.6010   -4.4960 H   0  0  0  0  0  0  0  0  0  0  0  0
   -4.4000   12.7030   -3.6110 C   0  0  2  0  0  0  0  0  0  0  0  0
   -3.3800   12.9570   -3.9060 H   0  0  0  0  0  0  0  0  0  0  0  0
   -5.3070   13.1200   -4.6470 O   0  0  0  0  0  0  0  0  0  0  0  0
   -5.0920   12.6620   -5.4630 H   0  0  0  0  0  0  0  0  0  0  0  0
   -4.5290   11.1790   -3.4370 C   0  0  1  0  0  0  0  0  0  0  0  0
   -5.5830   10.8960   -3.3950 H   0  0  0  0  0  0  0  0  0  0  0  0
   -3.9120   10.5550   -4.5780 O   0  0  0  0  0  0  0  0  0  0  0  0
   -4.4030   14.8880   -2.5280 O   0  0  0  0  0  0  0  0  0  0  0  0
   -5.4770   15.8630   -2.2840 C   0  0  2  0  0  0  0  0  0  0  0  0
   -5.9540   15.6410   -1.3270 H   0  0  0  0  0  0  0  0  0  0  0  0
   -6.4910   15.8180   -3.3560 O   0  0  0  0  0  0  0  0  0  0  0  0
   -7.6050   16.7860   -3.2450 C   0  0  2  0  0  0  0  0  0  0  0  0
   -8.1170   16.6260   -2.2930 H   0  0  0  0  0  0  0  0  0  0  0  0
   -8.5860   16.5170   -4.3930 C   0  0  0  0  0  0  0  0  0  0  0  0
   -8.0830   16.5990   -5.3570 H   0  0  0  0  0  0  0  0  0  0  0  0
   -9.4080   17.2320   -4.3680 H   0  0  0  0  0  0  0  0  0  0  0  0
   -9.1220   15.1950   -4.2460 O   0  0  0  0  0  0  0  0  0  0  0  0
   -8.4060   14.5560   -4.2670 H   0  0  0  0  0  0  0  0  0  0  0  0
   -7.0020   18.2030   -3.2620 C   0  0  2  0  0  0  0  0  0  0  0  0
   -6.5560   18.3860   -4.2430 H   0  0  0  0  0  0  0  0  0  0  0  0
   -3.3750   16.6690   -1.0820 H   0  0  0  0  0  0  0  0  0  0  0  0
   -5.9250   18.3750   -2.1780 C   0  0  2  0  0  0  0  0  0  0  0  0
   -6.3970   18.3760   -1.1940 H   0  0  0  0  0  0  0  0  0  0  0  0
   -5.2800   19.6440   -2.3920 O   0  0  0  0  0  0  0  0  0  0  0  0
   -4.6080   19.7780   -1.7200 H   0  0  0  0  0  0  0  0  0  0  0  0
   -4.8560   17.2700   -2.2450 C   0  0  1  0  0  0  0  0  0  0  0  0
   -4.2240   17.4120   -3.1230 H   0  0  0  0  0  0  0  0  0  0  0  0
   -4.0470   17.3530   -1.0590 O   0  0  0  0  0  0  0  0  0  0  0  0
   -8.0810   19.1740   -2.9930 O   0  0  0  0  0  0  0  0  0  0  0  0
   -8.4690   20.0270   -4.1270 C   0  0  2  0  0  0  0  0  0  0  0  0
   -8.6350   19.4020   -5.0070 H   0  0  0  0  0  0  0  0  0  0  0  0
   -7.4200   21.0220   -4.4290 O   0  0  0  0  0  0  0  0  0  0  0  0
   -7.7110   21.9600   -5.5350 C   0  0  2  0  0  0  0  0  0  0  0  0
   -7.9040   21.3840   -6.4430 H   0  0  0  0  0  0  0  0  0  0  0  0
   -6.4720   22.8380   -5.7530 C   0  0  0  0  0  0  0  0  0  0  0  0
   -6.2130   23.3730   -4.8390 H   0  0  0  0  0  0  0  0  0  0  0  0
   -6.6560   23.5680   -6.5410 H   0  0  0  0  0  0  0  0  0  0  0  0
   -5.3750   22.0030   -6.1450 O   0  0  0  0  0  0  0  0  0  0  0  0
   -5.2040   21.3550   -5.4570 H   0  0  0  0  0  0  0  0  0  0  0  0
   -8.9780   22.7520   -5.1610 C   0  0  2  0  0  0  0  0  0  0  0  0
   -8.7590   23.3850   -4.2980 H   0  0  0  0  0  0  0  0  0  0  0  0
  -10.5930   19.1260   -3.0350 H   0  0  0  0  0  0  0  0  0  0  0  0
  -10.1510   21.8190   -4.8150 C   0  0  2  0  0  0  0  0  0  0  0  0
  -10.4980   21.3220   -5.7240 H   0  0  0  0  0  0  0  0  0  0  0  0
  -11.2170   22.6260   -4.2840 O   0  0  0  0  0  0  0  0  0  0  0  0
  -11.9660   22.0650   -4.0700 H   0  0  0  0  0  0  0  0  0  0  0  0
   -9.7650   20.7680   -3.7590 C   0  0  1  0  0  0  0  0  0  0  0  0
   -9.6480   21.2430   -2.7830 H   0  0  0  0  0  0  0  0  0  0  0  0
  -10.8180   19.7910   -3.6890 O   0  0  0  0  0  0  0  0  0  0  0  0
   -9.3760   23.5750   -6.3200 O   0  0  0  0  0  0  0  0  0  0  0  0
   -9.1840   25.0250   -6.1700 C   0  0  2  0  0  0  0  0  0  0  0  0
   -8.1750   25.2180   -5.8010 H   0  0  0  0  0  0  0  0  0  0  0  0
  -10.1650   25.5980   -5.2270 O   0  0  0  0  0  0  0  0  0  0  0  0
  -10.0890   27.0610   -5.0180 C   0  0  2  0  0  0  0  0  0  0  0  0
   -9.0880   27.3140   -4.6600 H   0  0  0  0  0  0  0  0  0  0  0  0
  -11.1140   27.4420   -3.9430 C   0  0  0  0  0  0  0  0  0  0  0  0
  -12.1180   27.1350   -4.2410 H   0  0  0  0  0  0  0  0  0  0  0  0
  -11.1160   28.5200   -3.7820 H   0  0  0  0  0  0  0  0  0  0  0  0
  -10.7620   26.7930   -2.7140 O   0  0  0  0  0  0  0  0  0  0  0  0
  -10.7580   25.8420   -2.8450 H   0  0  0  0  0  0  0  0  0  0  0  0
  -10.3280   27.7450   -6.3760 C   0  0  2  0  0  0  0  0  0  0  0  0
  -11.3570   27.5560   -6.6930 H   0  0  0  0  0  0  0  0  0  0  0  0
   -8.2640   24.3200   -8.4450 H   0  0  0  0  0  0  0  0  0  0  0  0
   -9.3640   27.2230   -7.4550 C   0  0  2  0  0  0  0  0  0  0  0  0
   -8.3530   27.5760   -7.2400 H   0  0  0  0  0  0  0  0  0  0  0  0
   -9.7880   27.7550   -8.7230 O   0  0  0  0  0  0  0  0  0  0  0  0
   -9.1950   27.4490   -9.4120 H   0  0  0  0  0  0  0  0  0  0  0  0
   -9.3730   25.6870   -7.5450 C   0  0  1  0  0  0  0  0  0  0  0  0
  -10.3100   25.3420   -7.9890 H   0  0  0  0  0  0  0  0  0  0  0  0
   -8.2750   25.2780   -8.3780 O   0  0  0  0  0  0  0  0  0  0  0  0
  -10.0930   29.1940   -6.2170 O   0  0  0  0  0  0  0  0  0  0  0  0
  -11.2870   30.0490   -6.3050 C   0  0  2  0  0  0  0  0  0  0  0  0
  -12.0660   29.6460   -5.6560 H   0  0  0  0  0  0  0  0  0  0  0  0
  -11.7940   30.1150   -7.6910 O   0  0  0  0  0  0  0  0  0  0  0  0
  -12.9760   30.9760   -7.9120 C   0  0  2  0  0  0  0  0  0  0  0  0
  -13.7880   30.6300   -7.2680 H   0  0  0  0  0  0  0  0  0  0  0  0
  -13.4030   30.8300   -9.3770 C   0  0  0  0  0  0  0  0  0  0  0  0
  -12.5850   31.1020  -10.0460 H   0  0  0  0  0  0  0  0  0  0  0  0
  -14.2550   31.4740   -9.5930 H   0  0  0  0  0  0  0  0  0  0  0  0
  -13.7830   29.4680   -9.6180 O   0  0  0  0  0  0  0  0  0  0  0  0
  -13.0390   28.8910   -9.4300 H   0  0  0  0  0  0  0  0  0  0  0  0
  -12.5930   32.4130   -7.5130 C   0  0  2  0  0  0  0  0  0  0  0  0
  -11.8310   32.7820   -8.2040 H   0  0  0  0  0  0  0  0  0  0  0  0
   -9.9230   30.7820   -4.2760 H   0  0  0  0  0  0  0  0  0  0  0  0
  -12.0430   32.4770   -6.0780 C   0  0  2  0  0  0  0  0  0  0  0  0
  -12.8540   32.2900   -5.3700 H   0  0  0  0  0  0  0  0  0  0  0  0
  -11.5260   33.8020   -5.8600 O   0  0  0  0  0  0  0  0  0  0  0  0
  -11.1840   33.8680   -4.9660 H   0  0  0  0  0  0  0  0  0  0  0  0
  -10.9050   31.4670   -5.8490 C   0  0  1  0  0  0  0  0  0  0  0  0
  -10.0060   31.7890   -6.3770 H   0  0  0  0  0  0  0  0  0  0  0  0
  -10.6310   31.4090   -4.4380 O   0  0  0  0  0  0  0  0  0  0  0  0
  -13.8030   33.2560   -7.5780 O   0  0  0  0  0  0  0  0  0  0  0  0
  -13.8410   34.2340   -8.6770 C   0  0  2  0  0  0  0  0  0  0  0  0
  -13.5740   33.7360   -9.6100 H   0  0  0  0  0  0  0  0  0  0  0  0
  -12.9020   35.3460   -8.4330 O   0  0  0  0  0  0  0  0  0  0  0  0
  -12.8570   36.4000   -9.4700 C   0  0  2  0  0  0  0  0  0  0  0  0
  -12.5850   35.9380  -10.4230 H   0  0  0  0  0  0  0  0  0  0  0  0
  -11.7690   37.4050   -9.0710 C   0  0  0  0  0  0  0  0  0  0  0  0
  -11.9660   37.8120   -8.0780 H   0  0  0  0  0  0  0  0  0  0  0  0
  -11.7320   38.2310   -9.7820 H   0  0  0  0  0  0  0  0  0  0  0  0
  -10.4990   36.7390   -9.0680 O   0  0  0  0  0  0  0  0  0  0  0  0
  -10.5220   36.0090   -8.4440 H   0  0  0  0  0  0  0  0  0  0  0  0
  -14.2650   37.0160   -9.5870 C   0  0  1  0  0  0  0  0  0  0  0  0
  -14.4830   37.5960   -8.6880 H   0  0  0  0  0  0  0  0  0  0  0  0
  -14.2700   37.8920  -10.7280 O   0  0  0  0  0  0  0  0  0  0  0  0
  -15.1380   38.2920  -10.8200 H   0  0  0  0  0  0  0  0  0  0  0  0
  -15.3570   35.9500   -9.8030 C   0  0  2  0  0  0  0  0  0  0  0  0
  -15.2780   35.5430  -10.8140 H   0  0  0  0  0  0  0  0  0  0  0  0
  -16.6400   36.5850   -9.6460 O   0  0  0  0  0  0  0  0  0  0  0  0
  -17.3350   35.9360   -9.7800 H   0  0  0  0  0  0  0  0  0  0  0  0
  -15.2630   34.8070   -8.7760 C   0  0  1  0  0  0  0  0  0  0  0  0
  -15.5830   35.1570   -7.7930 H   0  0  0  0  0  0  0  0  0  0  0  0
  -16.1300   33.7430   -9.2060 O   0  0  0  0  0  0  0  0  0  0  0  0
  -16.0830   33.0190   -8.5770 H   0  0  0  0  0  0  0  0  0  0  0  0
  2  1  1  0  0  0  0
  3  4  1  6  0  0  0
  3  2  1  0  0  0  0
  3  5  1  0  0  0  0
  6  7  1  6  0  0  0
  6  5  1  0  0  0  0
  6  8  1  0  0  0  0
  8  9  1  0  0  0  0
  8 11  1  0  0  0  0
 10  8  1  0  0  0  0
 11 12  1  0  0  0  0
 13 14  1  1  0  0  0
 13  6  1  0  0  0  0
 16 17  1  6  0  0  0
 16 20  1  0  0  0  0
 16 13  1  0  0  0  0
 18 16  1  0  0  0  0
 19 18  1  0  0  0  0
 20 21  1  1  0  0  0
 20  3  1  0  0  0  0
 22 15  1  0  0  0  0
 22 20  1  0  0  0  0
 23 13  1  0  0  0  0
 23 24  1  0  0  0  0
 24 41  1  0  0  0  0
 24 25  1  1  0  0  0
 26 27  1  0  0  0  0
 26 24  1  0  0  0  0
 27 28  1  1  0  0  0
 29 31  1  0  0  0  0
 29 32  1  0  0  0  0
 29 27  1  0  0  0  0
 30 29  1  0  0  0  0
 33 32  1  0  0  0  0
 34 35  1  6  0  0  0
 34 27  1  0  0  0  0
 34 44  1  0  0  0  0
 34 37  1  0  0  0  0
 36 43  1  0  0  0  0
 37 38  1  1  0  0  0
 39 37  1  0  0  0  0
 39 40  1  0  0  0  0
 41 42  1  6  0  0  0
 41 37  1  0  0  0  0
 41 43  1  0  0  0  0
 45 46  1  6  0  0  0
 45 62  1  0  0  0  0
 45 44  1  0  0  0  0
 47 45  1  0  0  0  0
 48 49  1  6  0  0  0
 48 55  1  0  0  0  0
 48 47  1  0  0  0  0
 50 48  1  0  0  0  0
 50 51  1  0  0  0  0
 52 50  1  0  0  0  0
 53 50  1  0  0  0  0
 53 54  1  0  0  0  0
 55 58  1  0  0  0  0
 55 56  1  1  0  0  0
 58 59  1  6  0  0  0
 58 60  1  0  0  0  0
 58 62  1  0  0  0  0
 60 61  1  0  0  0  0
 62 64  1  0  0  0  0
 62 63  1  1  0  0  0
 64 57  1  0  0  0  0
 65 66  1  0  0  0  0
 65 55  1  0  0  0  0
 66 67  1  1  0  0  0
 66 68  1  0  0  0  0
 68 69  1  0  0  0  0
 69 70  1  1  0  0  0
 69 71  1  0  0  0  0
 71 73  1  0  0  0  0
 71 74  1  0  0  0  0
 72 71  1  0  0  0  0
 75 74  1  0  0  0  0
 76 77  1  6  0  0  0
 76 86  1  0  0  0  0
 76 69  1  0  0  0  0
 78 85  1  0  0  0  0
 79 80  1  1  0  0  0
 79 76  1  0  0  0  0
 81 79  1  0  0  0  0
 82 81  1  0  0  0  0
 83 84  1  6  0  0  0
 83 79  1  0  0  0  0
 83 66  1  0  0  0  0
 85 83  1  0  0  0  0
 87 86  1  0  0  0  0
 87104  1  0  0  0  0
 87 88  1  1  0  0  0
 89 87  1  0  0  0  0
 90 89  1  0  0  0  0
 90 97  1  0  0  0  0
 90 91  1  1  0  0  0
 92 90  1  0  0  0  0
 93 92  1  0  0  0  0
 94 92  1  0  0  0  0
 95 96  1  0  0  0  0
 95 92  1  0  0  0  0
 97 98  1  6  0  0  0
 97100  1  0  0  0  0
100102  1  0  0  0  0
100104  1  0  0  0  0
100101  1  1  0  0  0
102103  1  0  0  0  0
104105  1  6  0  0  0
104106  1  0  0  0  0
106 99  1  0  0  0  0
107 97  1  0  0  0  0
108109  1  6  0  0  0
108110  1  0  0  0  0
108107  1  0  0  0  0
111112  1  6  0  0  0
111113  1  0  0  0  0
111110  1  0  0  0  0
113116  1  0  0  0  0
113114  1  0  0  0  0
115113  1  0  0  0  0
116117  1  0  0  0  0
118111  1  0  0  0  0
118119  1  1  0  0  0
120118  1  0  0  0  0
121120  1  0  0  0  0
122123  1  6  0  0  0
122124  1  0  0  0  0
122118  1  0  0  0  0
122126  1  0  0  0  0
125124  1  0  0  0  0
126108  1  0  0  0  0
126127  1  1  0  0  0
128126  1  0  0  0  0
128129  1  0  0  0  0
M  END
