C:\Users\eirik\OneDrive - Norwegian University of Life Sciences\Documents\Masteroppgave\glycam\cellulose\pdb\DGlcpb1-4DGlcpb1-4DGlcpb1-4DGlcpb1-OH_structure_min-gas.pdb DGlcpb1-4DGlcpb1-4DGlcpb1-4DGlcpb1-OH_structure_min-gas.pdb
 OpenBabel01122616523D

 87 90  0  0  1  0  0  0  0  0999 V2000
   -3.7500    9.0690   -1.1950 H   0  0  0  0  0  0  0  0  0  0  0  0
   -4.1880    9.3890   -1.9870 O   0  0  0  0  0  0  0  0  0  0  0  0
   -3.8490   10.7660   -2.1970 C   0  0  2  0  0  0  0  0  0  0  0  0
   -2.7680   10.8490   -2.3150 H   0  0  0  0  0  0  0  0  0  0  0  0
   -4.2650   11.5840   -1.0410 O   0  0  0  0  0  0  0  0  0  0  0  0
   -4.0300   13.0420   -1.1470 C   0  0  2  0  0  0  0  0  0  0  0  0
   -2.9630   13.2150   -1.3030 H   0  0  0  0  0  0  0  0  0  0  0  0
   -4.4550   13.6920    0.1760 C   0  0  0  0  0  0  0  0  0  0  0  0
   -5.4970   13.4640    0.4010 H   0  0  0  0  0  0  0  0  0  0  0  0
   -4.3420   14.7750    0.1230 H   0  0  0  0  0  0  0  0  0  0  0  0
   -3.6190   13.1930    1.2290 O   0  0  0  0  0  0  0  0  0  0  0  0
   -3.7120   12.2390    1.2850 H   0  0  0  0  0  0  0  0  0  0  0  0
   -4.8090   13.5620   -2.3680 C   0  0  2  0  0  0  0  0  0  0  0  0
   -5.8810   13.4600   -2.1760 H   0  0  0  0  0  0  0  0  0  0  0  0
   -4.0230    9.6800   -4.5100 H   0  0  0  0  0  0  0  0  0  0  0  0
   -4.4470   12.7870   -3.6460 C   0  0  2  0  0  0  0  0  0  0  0  0
   -3.4270   13.0400   -3.9420 H   0  0  0  0  0  0  0  0  0  0  0  0
   -5.3540   13.1970   -4.6850 O   0  0  0  0  0  0  0  0  0  0  0  0
   -5.1380   12.7330   -5.4970 H   0  0  0  0  0  0  0  0  0  0  0  0
   -4.5750   11.2640   -3.4620 C   0  0  1  0  0  0  0  0  0  0  0  0
   -5.6280   10.9800   -3.4190 H   0  0  0  0  0  0  0  0  0  0  0  0
   -3.9570   10.6330   -4.5990 O   0  0  0  0  0  0  0  0  0  0  0  0
   -4.4520   14.9790   -2.5760 O   0  0  0  0  0  0  0  0  0  0  0  0
   -5.5260   15.9550   -2.3370 C   0  0  2  0  0  0  0  0  0  0  0  0
   -6.0050   15.7360   -1.3810 H   0  0  0  0  0  0  0  0  0  0  0  0
   -6.5390   15.9060   -3.4110 O   0  0  0  0  0  0  0  0  0  0  0  0
   -7.6530   16.8750   -3.3050 C   0  0  2  0  0  0  0  0  0  0  0  0
   -8.1670   16.7170   -2.3540 H   0  0  0  0  0  0  0  0  0  0  0  0
   -8.6310   16.6030   -4.4540 C   0  0  0  0  0  0  0  0  0  0  0  0
   -8.1260   16.6810   -5.4170 H   0  0  0  0  0  0  0  0  0  0  0  0
   -9.4510   17.3210   -4.4350 H   0  0  0  0  0  0  0  0  0  0  0  0
   -9.1700   15.2830   -4.3040 O   0  0  0  0  0  0  0  0  0  0  0  0
   -8.4540   14.6420   -4.3210 H   0  0  0  0  0  0  0  0  0  0  0  0
   -7.0500   18.2910   -3.3240 C   0  0  2  0  0  0  0  0  0  0  0  0
   -6.6030   18.4720   -4.3050 H   0  0  0  0  0  0  0  0  0  0  0  0
   -3.4240   16.7640   -1.1370 H   0  0  0  0  0  0  0  0  0  0  0  0
   -5.9740   18.4670   -2.2400 C   0  0  2  0  0  0  0  0  0  0  0  0
   -6.4470   18.4700   -1.2560 H   0  0  0  0  0  0  0  0  0  0  0  0
   -5.3290   19.7350   -2.4570 O   0  0  0  0  0  0  0  0  0  0  0  0
   -4.6570   19.8700   -1.7840 H   0  0  0  0  0  0  0  0  0  0  0  0
   -4.9050   17.3610   -2.3030 C   0  0  1  0  0  0  0  0  0  0  0  0
   -4.2720   17.5010   -3.1810 H   0  0  0  0  0  0  0  0  0  0  0  0
   -4.0970   17.4490   -1.1160 O   0  0  0  0  0  0  0  0  0  0  0  0
   -8.1300   19.2630   -3.0590 O   0  0  0  0  0  0  0  0  0  0  0  0
   -8.5040   20.1270   -4.1890 C   0  0  2  0  0  0  0  0  0  0  0  0
   -8.6650   19.5110   -5.0750 H   0  0  0  0  0  0  0  0  0  0  0  0
   -7.4480   21.1200   -4.4720 O   0  0  0  0  0  0  0  0  0  0  0  0
   -7.7250   22.0720   -5.5700 C   0  0  2  0  0  0  0  0  0  0  0  0
   -7.9150   21.5080   -6.4850 H   0  0  0  0  0  0  0  0  0  0  0  0
   -6.4780   22.9430   -5.7690 C   0  0  0  0  0  0  0  0  0  0  0  0
   -6.2210   23.4660   -4.8480 H   0  0  0  0  0  0  0  0  0  0  0  0
   -6.6500   23.6820   -6.5510 H   0  0  0  0  0  0  0  0  0  0  0  0
   -5.3830   22.1040   -6.1620 O   0  0  0  0  0  0  0  0  0  0  0  0
   -5.2230   21.4470   -5.4800 H   0  0  0  0  0  0  0  0  0  0  0  0
   -8.9890   22.8680   -5.1950 C   0  0  2  0  0  0  0  0  0  0  0  0
   -8.7730   23.4860   -4.3200 H   0  0  0  0  0  0  0  0  0  0  0  0
  -10.6440   19.2250   -3.1290 H   0  0  0  0  0  0  0  0  0  0  0  0
  -10.1710   21.9370   -4.8730 C   0  0  2  0  0  0  0  0  0  0  0  0
  -10.5110   21.4530   -5.7910 H   0  0  0  0  0  0  0  0  0  0  0  0
  -11.2370   22.7440   -4.3420 O   0  0  0  0  0  0  0  0  0  0  0  0
  -11.9910   22.1840   -4.1410 H   0  0  0  0  0  0  0  0  0  0  0  0
   -9.8000   20.8710   -3.8260 C   0  0  1  0  0  0  0  0  0  0  0  0
   -9.6900   21.3340   -2.8430 H   0  0  0  0  0  0  0  0  0  0  0  0
  -10.8580   19.8990   -3.7780 O   0  0  0  0  0  0  0  0  0  0  0  0
   -9.3700   23.7120   -6.3440 O   0  0  0  0  0  0  0  0  0  0  0  0
   -9.1580   25.1570   -6.1720 C   0  0  2  0  0  0  0  0  0  0  0  0
   -8.1520   25.3300   -5.7850 H   0  0  0  0  0  0  0  0  0  0  0  0
  -10.1440   25.7330   -5.2370 O   0  0  0  0  0  0  0  0  0  0  0  0
  -10.0340   27.1880   -4.9900 C   0  0  2  0  0  0  0  0  0  0  0  0
   -9.0380   27.3990   -4.5940 H   0  0  0  0  0  0  0  0  0  0  0  0
  -11.0840   27.5650   -3.9360 C   0  0  0  0  0  0  0  0  0  0  0  0
  -12.0830   27.2770   -4.2670 H   0  0  0  0  0  0  0  0  0  0  0  0
  -11.0760   28.6400   -3.7560 H   0  0  0  0  0  0  0  0  0  0  0  0
  -10.7760   26.8880   -2.7100 O   0  0  0  0  0  0  0  0  0  0  0  0
  -10.7800   25.9390   -2.8590 H   0  0  0  0  0  0  0  0  0  0  0  0
  -10.2110   27.9170   -6.3370 C   0  0  1  0  0  0  0  0  0  0  0  0
  -11.2480   27.8230   -6.6670 H   0  0  0  0  0  0  0  0  0  0  0  0
   -9.9040   29.3070   -6.1300 O   0  0  0  0  0  0  0  0  0  0  0  0
  -10.0110   29.7840   -6.9560 H   0  0  0  0  0  0  0  0  0  0  0  0
   -9.2620   27.3780   -7.4250 C   0  0  2  0  0  0  0  0  0  0  0  0
   -8.2380   27.6930   -7.2080 H   0  0  0  0  0  0  0  0  0  0  0  0
   -9.6690   27.9330   -8.6890 O   0  0  0  0  0  0  0  0  0  0  0  0
   -9.0870   27.6110   -9.3820 H   0  0  0  0  0  0  0  0  0  0  0  0
   -9.3180   25.8440   -7.5380 C   0  0  1  0  0  0  0  0  0  0  0  0
  -10.2620   25.5340   -7.9910 H   0  0  0  0  0  0  0  0  0  0  0  0
   -8.2280   25.4130   -8.3710 O   0  0  0  0  0  0  0  0  0  0  0  0
   -8.2460   24.4560   -8.4510 H   0  0  0  0  0  0  0  0  0  0  0  0
  2  1  1  0  0  0  0
  3  4  1  6  0  0  0
  3  2  1  0  0  0  0
  3  5  1  0  0  0  0
  6  7  1  6  0  0  0
  6  5  1  0  0  0  0
  6  8  1  0  0  0  0
  8  9  1  0  0  0  0
  8 11  1  0  0  0  0
 10  8  1  0  0  0  0
 11 12  1  0  0  0  0
 13 14  1  1  0  0  0
 13  6  1  0  0  0  0
 16 17  1  6  0  0  0
 16 20  1  0  0  0  0
 16 13  1  0  0  0  0
 18 16  1  0  0  0  0
 19 18  1  0  0  0  0
 20 21  1  1  0  0  0
 20  3  1  0  0  0  0
 22 15  1  0  0  0  0
 22 20  1  0  0  0  0
 23 13  1  0  0  0  0
 23 24  1  0  0  0  0
 24 41  1  0  0  0  0
 24 25  1  1  0  0  0
 26 27  1  0  0  0  0
 26 24  1  0  0  0  0
 27 28  1  1  0  0  0
 29 31  1  0  0  0  0
 29 32  1  0  0  0  0
 29 27  1  0  0  0  0
 30 29  1  0  0  0  0
 33 32  1  0  0  0  0
 34 35  1  6  0  0  0
 34 27  1  0  0  0  0
 34 44  1  0  0  0  0
 34 37  1  0  0  0  0
 36 43  1  0  0  0  0
 37 38  1  1  0  0  0
 39 37  1  0  0  0  0
 39 40  1  0  0  0  0
 41 42  1  6  0  0  0
 41 37  1  0  0  0  0
 41 43  1  0  0  0  0
 45 46  1  6  0  0  0
 45 62  1  0  0  0  0
 45 44  1  0  0  0  0
 47 45  1  0  0  0  0
 48 49  1  6  0  0  0
 48 55  1  0  0  0  0
 48 47  1  0  0  0  0
 50 48  1  0  0  0  0
 50 51  1  0  0  0  0
 52 50  1  0  0  0  0
 53 50  1  0  0  0  0
 53 54  1  0  0  0  0
 55 58  1  0  0  0  0
 55 56  1  1  0  0  0
 58 59  1  6  0  0  0
 58 60  1  0  0  0  0
 58 62  1  0  0  0  0
 60 61  1  0  0  0  0
 62 64  1  0  0  0  0
 62 63  1  1  0  0  0
 64 57  1  0  0  0  0
 65 66  1  0  0  0  0
 65 55  1  0  0  0  0
 66 67  1  1  0  0  0
 66 68  1  0  0  0  0
 68 69  1  0  0  0  0
 69 70  1  1  0  0  0
 69 71  1  0  0  0  0
 71 73  1  0  0  0  0
 71 74  1  0  0  0  0
 72 71  1  0  0  0  0
 75 74  1  0  0  0  0
 76 77  1  6  0  0  0
 76 78  1  0  0  0  0
 76 69  1  0  0  0  0
 79 78  1  0  0  0  0
 80 81  1  1  0  0  0
 80 76  1  0  0  0  0
 82 80  1  0  0  0  0
 83 82  1  0  0  0  0
 84 85  1  6  0  0  0
 84 80  1  0  0  0  0
 84 66  1  0  0  0  0
 86 84  1  0  0  0  0
 87 86  1  0  0  0  0
M  END
