C:\Users\eirik\OneDrive - Norwegian University of Life Sciences\Documents\Masteroppgave\glycam\amylose\pdb\DGlcpa1-4DGlcpa1-OH_structure_min-gas.pdb DGlcpa1-4DGlcpa1-OH_structure_min-gas.pdb
 OpenBabel01122616233D

 45 46  0  0  1  0  0  0  0  0999 V2000
   -3.6410    9.5780   -1.6280 H   0  0  0  0  0  0  0  0  0  0  0  0
   -4.0810    9.7870   -2.4550 O   0  0  0  0  0  0  0  0  0  0  0  0
   -4.1280    8.6090   -3.2830 C   0  0  2  0  0  0  0  0  0  0  0  0
   -3.1060    8.2850   -3.4790 H   0  0  0  0  0  0  0  0  0  0  0  0
   -4.8360    8.8960   -4.6220 C   0  0  1  0  0  0  0  0  0  0  0  0
   -4.6950    8.0270   -5.2670 H   0  0  0  0  0  0  0  0  0  0  0  0
   -6.3420    9.1550   -4.4560 C   0  0  2  0  0  0  0  0  0  0  0  0
   -6.5020   10.1060   -3.9450 H   0  0  0  0  0  0  0  0  0  0  0  0
   -7.0230    8.0170   -3.6680 C   0  0  1  0  0  0  0  0  0  0  0  0
   -7.0380    7.1080   -4.2750 H   0  0  0  0  0  0  0  0  0  0  0  0
   -6.3000    7.7010   -2.3430 C   0  0  1  0  0  0  0  0  0  0  0  0
   -6.4230    8.5480   -1.6650 H   0  0  0  0  0  0  0  0  0  0  0  0
   -6.8200    6.4330   -1.6540 C   0  0  0  0  0  0  0  0  0  0  0  0
   -7.8890    6.5120   -1.4700 H   0  0  0  0  0  0  0  0  0  0  0  0
   -6.6390    5.5540   -2.2740 H   0  0  0  0  0  0  0  0  0  0  0  0
   -6.1510    6.2760   -0.3950 O   0  0  0  0  0  0  0  0  0  0  0  0
   -6.3180    7.0450    0.1550 H   0  0  0  0  0  0  0  0  0  0  0  0
   -4.8480    7.5120   -2.6040 O   0  0  0  0  0  0  0  0  0  0  0  0
   -4.3010   10.8000   -4.6940 H   0  0  0  0  0  0  0  0  0  0  0  0
   -6.9390    9.2130   -5.7630 O   0  0  0  0  0  0  0  0  0  0  0  0
   -6.5250    9.9130   -6.2730 H   0  0  0  0  0  0  0  0  0  0  0  0
   -4.2080   10.0270   -5.2560 O   0  0  0  0  0  0  0  0  0  0  0  0
   -8.4000    8.4450   -3.3510 O   0  0  0  0  0  0  0  0  0  0  0  0
   -9.4650    7.8950   -4.2160 C   0  0  2  0  0  0  0  0  0  0  0  0
   -9.0770    7.7920   -5.2290 H   0  0  0  0  0  0  0  0  0  0  0  0
  -10.6790    8.8410   -4.2790 C   0  0  1  0  0  0  0  0  0  0  0  0
  -11.3170    8.5200   -5.1050 H   0  0  0  0  0  0  0  0  0  0  0  0
  -11.5000    8.8580   -2.9780 C   0  0  2  0  0  0  0  0  0  0  0  0
  -10.9380    9.3650   -2.1910 H   0  0  0  0  0  0  0  0  0  0  0  0
  -11.8670    7.4310   -2.5300 C   0  0  1  0  0  0  0  0  0  0  0  0
  -12.6050    7.0020   -3.2120 H   0  0  0  0  0  0  0  0  0  0  0  0
  -10.6370    6.5050   -2.4560 C   0  0  1  0  0  0  0  0  0  0  0  0
   -9.9780    6.8730   -1.6680 H   0  0  0  0  0  0  0  0  0  0  0  0
  -10.9750    5.0350   -2.1750 C   0  0  0  0  0  0  0  0  0  0  0  0
  -11.5620    4.9460   -1.2610 H   0  0  0  0  0  0  0  0  0  0  0  0
  -11.5510    4.6080   -2.9980 H   0  0  0  0  0  0  0  0  0  0  0  0
   -9.7540    4.3010   -2.0140 O   0  0  0  0  0  0  0  0  0  0  0  0
   -9.2500    4.6730   -1.2860 H   0  0  0  0  0  0  0  0  0  0  0  0
   -9.9090    6.5650   -3.7490 O   0  0  0  0  0  0  0  0  0  0  0  0
  -12.4340    7.5150   -1.2100 O   0  0  0  0  0  0  0  0  0  0  0  0
  -13.2060    8.0850   -1.2300 H   0  0  0  0  0  0  0  0  0  0  0  0
  -12.7230    9.5740   -3.2320 O   0  0  0  0  0  0  0  0  0  0  0  0
  -12.5160   10.4640   -3.5260 H   0  0  0  0  0  0  0  0  0  0  0  0
  -10.2100   10.1730   -4.5560 O   0  0  0  0  0  0  0  0  0  0  0  0
   -9.6240   10.4590   -3.8510 H   0  0  0  0  0  0  0  0  0  0  0  0
  2  1  1  0  0  0  0
  3  4  1  6  0  0  0
  3 18  1  0  0  0  0
  3  2  1  0  0  0  0
  5  6  1  6  0  0  0
  5  7  1  0  0  0  0
  5  3  1  0  0  0  0
  7  8  1  1  0  0  0
  7  9  1  0  0  0  0
  9 10  1  6  0  0  0
  9 23  1  0  0  0  0
  9 11  1  0  0  0  0
 11 12  1  1  0  0  0
 11 13  1  0  0  0  0
 13 14  1  0  0  0  0
 13 16  1  0  0  0  0
 15 13  1  0  0  0  0
 16 17  1  0  0  0  0
 18 11  1  0  0  0  0
 20  7  1  0  0  0  0
 21 20  1  0  0  0  0
 22 19  1  0  0  0  0
 22  5  1  0  0  0  0
 24 25  1  6  0  0  0
 24 39  1  0  0  0  0
 24 23  1  0  0  0  0
 26 27  1  6  0  0  0
 26 24  1  0  0  0  0
 26 28  1  0  0  0  0
 28 30  1  0  0  0  0
 28 29  1  1  0  0  0
 30 31  1  6  0  0  0
 30 32  1  0  0  0  0
 30 40  1  0  0  0  0
 32 34  1  0  0  0  0
 32 33  1  1  0  0  0
 34 37  1  0  0  0  0
 34 35  1  0  0  0  0
 36 34  1  0  0  0  0
 37 38  1  0  0  0  0
 39 32  1  0  0  0  0
 41 40  1  0  0  0  0
 42 28  1  0  0  0  0
 43 42  1  0  0  0  0
 44 26  1  0  0  0  0
 44 45  1  0  0  0  0
M  END
$$$$
C:\Users\eirik\OneDrive - Norwegian University of Life Sciences\Documents\Masteroppgave\glycam\amylose\pdb\DGlcpa1-4DGlcpa1-4DGlcpa1-OH_structure_min-gas.pdb DGlcpa1-4DGlcpa1-4DGlcpa1-OH_structure_min-gas.pdb
 OpenBabel01122616233D

 66 68  0  0  1  0  0  0  0  0999 V2000
   -3.5560    9.8550   -1.8730 H   0  0  0  0  0  0  0  0  0  0  0  0
   -4.0410   10.0340   -2.6820 O   0  0  0  0  0  0  0  0  0  0  0  0
   -4.0450    8.8550   -3.5090 C   0  0  2  0  0  0  0  0  0  0  0  0
   -3.0130    8.5980   -3.7470 H   0  0  0  0  0  0  0  0  0  0  0  0
   -4.8240    9.0910   -4.8180 C   0  0  1  0  0  0  0  0  0  0  0  0
   -4.6540    8.2320   -5.4680 H   0  0  0  0  0  0  0  0  0  0  0  0
   -6.3360    9.2530   -4.5880 C   0  0  2  0  0  0  0  0  0  0  0  0
   -6.5350   10.1940   -4.0720 H   0  0  0  0  0  0  0  0  0  0  0  0
   -6.9080    8.0770   -3.7730 C   0  0  1  0  0  0  0  0  0  0  0  0
   -6.8930    7.1680   -4.3800 H   0  0  0  0  0  0  0  0  0  0  0  0
   -6.1110    7.8070   -2.4790 C   0  0  1  0  0  0  0  0  0  0  0  0
   -6.2610    8.6430   -1.7930 H   0  0  0  0  0  0  0  0  0  0  0  0
   -6.5160    6.5060   -1.7760 C   0  0  0  0  0  0  0  0  0  0  0  0
   -7.5790    6.5120   -1.5490 H   0  0  0  0  0  0  0  0  0  0  0  0
   -6.3020    5.6420   -2.4060 H   0  0  0  0  0  0  0  0  0  0  0  0
   -5.7880    6.3920   -0.5450 O   0  0  0  0  0  0  0  0  0  0  0  0
   -5.9860    7.1460    0.0150 H   0  0  0  0  0  0  0  0  0  0  0  0
   -4.6620    7.7140   -2.8020 O   0  0  0  0  0  0  0  0  0  0  0  0
   -4.4160   11.0250   -4.9090 H   0  0  0  0  0  0  0  0  0  0  0  0
   -6.9910    9.2670   -5.8680 O   0  0  0  0  0  0  0  0  0  0  0  0
   -6.6460    9.9910   -6.3960 H   0  0  0  0  0  0  0  0  0  0  0  0
   -4.2990   10.2590   -5.4760 O   0  0  0  0  0  0  0  0  0  0  0  0
   -8.2940    8.4230   -3.3990 O   0  0  0  0  0  0  0  0  0  0  0  0
   -9.3620    7.7620   -4.1790 C   0  0  2  0  0  0  0  0  0  0  0  0
   -9.0140    7.6220   -5.2030 H   0  0  0  0  0  0  0  0  0  0  0  0
  -10.6340    8.6280   -4.2320 C   0  0  1  0  0  0  0  0  0  0  0  0
  -11.2950    8.2170   -4.9970 H   0  0  0  0  0  0  0  0  0  0  0  0
  -11.3760    8.6790   -2.8880 C   0  0  2  0  0  0  0  0  0  0  0  0
  -10.7980    9.2630   -2.1690 H   0  0  0  0  0  0  0  0  0  0  0  0
  -11.6340    7.2710   -2.3220 C   0  0  1  0  0  0  0  0  0  0  0  0
  -12.3750    6.7530   -2.9360 H   0  0  0  0  0  0  0  0  0  0  0  0
  -10.3520    6.4200   -2.2770 C   0  0  1  0  0  0  0  0  0  0  0  0
   -9.6720    6.8640   -1.5490 H   0  0  0  0  0  0  0  0  0  0  0  0
  -10.5980    4.9540   -1.9000 C   0  0  0  0  0  0  0  0  0  0  0  0
  -11.1010    4.8910   -0.9380 H   0  0  0  0  0  0  0  0  0  0  0  0
  -11.2190    4.4610   -2.6480 H   0  0  0  0  0  0  0  0  0  0  0  0
   -9.3380    4.2770   -1.8020 O   0  0  0  0  0  0  0  0  0  0  0  0
   -8.7930    4.7090   -1.1410 H   0  0  0  0  0  0  0  0  0  0  0  0
   -9.7030    6.4410   -3.6140 O   0  0  0  0  0  0  0  0  0  0  0  0
   -9.6590   10.3290   -3.9670 H   0  0  0  0  0  0  0  0  0  0  0  0
  -12.6500    9.3150   -3.0970 O   0  0  0  0  0  0  0  0  0  0  0  0
  -12.5130   10.1960   -3.4530 H   0  0  0  0  0  0  0  0  0  0  0  0
  -10.2640    9.9640   -4.6180 O   0  0  0  0  0  0  0  0  0  0  0  0
  -12.1280    7.4330   -0.9390 O   0  0  0  0  0  0  0  0  0  0  0  0
  -13.5710    7.1970   -0.7310 C   0  0  2  0  0  0  0  0  0  0  0  0
  -14.1090    7.4800   -1.6360 H   0  0  0  0  0  0  0  0  0  0  0  0
  -14.1140    8.0580    0.4240 C   0  0  1  0  0  0  0  0  0  0  0  0
  -15.2050    8.0250    0.3910 H   0  0  0  0  0  0  0  0  0  0  0  0
  -13.6310    7.5840    1.8050 C   0  0  2  0  0  0  0  0  0  0  0  0
  -12.5660    7.7990    1.9190 H   0  0  0  0  0  0  0  0  0  0  0  0
  -13.8910    6.0790    2.0010 C   0  0  1  0  0  0  0  0  0  0  0  0
  -14.9610    5.8950    2.1100 H   0  0  0  0  0  0  0  0  0  0  0  0
  -13.3400    5.2270    0.8400 C   0  0  1  0  0  0  0  0  0  0  0  0
  -12.2510    5.3030    0.8420 H   0  0  0  0  0  0  0  0  0  0  0  0
  -13.7360    3.7470    0.9120 C   0  0  0  0  0  0  0  0  0  0  0  0
  -13.4290    3.3160    1.8650 H   0  0  0  0  0  0  0  0  0  0  0  0
  -14.8160    3.6310    0.8130 H   0  0  0  0  0  0  0  0  0  0  0  0
  -13.0810    3.0360   -0.1470 O   0  0  0  0  0  0  0  0  0  0  0  0
  -12.1300    3.1330   -0.0570 H   0  0  0  0  0  0  0  0  0  0  0  0
  -13.8490    5.7740   -0.4450 O   0  0  0  0  0  0  0  0  0  0  0  0
  -13.2150    5.6690    3.2040 O   0  0  0  0  0  0  0  0  0  0  0  0
  -13.5410    6.1850    3.9450 H   0  0  0  0  0  0  0  0  0  0  0  0
  -14.3740    8.3000    2.8080 O   0  0  0  0  0  0  0  0  0  0  0  0
  -14.2380    9.2430    2.6940 H   0  0  0  0  0  0  0  0  0  0  0  0
  -13.6930    9.4190    0.2190 O   0  0  0  0  0  0  0  0  0  0  0  0
  -12.7330    9.4590    0.2140 H   0  0  0  0  0  0  0  0  0  0  0  0
  2  1  1  0  0  0  0
  3  4  1  6  0  0  0
  3 18  1  0  0  0  0
  3  2  1  0  0  0  0
  5  6  1  6  0  0  0
  5  7  1  0  0  0  0
  5  3  1  0  0  0  0
  7  8  1  1  0  0  0
  7  9  1  0  0  0  0
  9 10  1  6  0  0  0
  9 23  1  0  0  0  0
  9 11  1  0  0  0  0
 11 12  1  1  0  0  0
 11 13  1  0  0  0  0
 13 14  1  0  0  0  0
 13 16  1  0  0  0  0
 15 13  1  0  0  0  0
 16 17  1  0  0  0  0
 18 11  1  0  0  0  0
 20  7  1  0  0  0  0
 21 20  1  0  0  0  0
 22 19  1  0  0  0  0
 22  5  1  0  0  0  0
 24 25  1  6  0  0  0
 24 39  1  0  0  0  0
 24 23  1  0  0  0  0
 26 27  1  6  0  0  0
 26 24  1  0  0  0  0
 26 28  1  0  0  0  0
 28 30  1  0  0  0  0
 28 29  1  1  0  0  0
 30 31  1  6  0  0  0
 30 32  1  0  0  0  0
 30 44  1  0  0  0  0
 32 34  1  0  0  0  0
 32 33  1  1  0  0  0
 34 37  1  0  0  0  0
 34 35  1  0  0  0  0
 36 34  1  0  0  0  0
 37 38  1  0  0  0  0
 39 32  1  0  0  0  0
 41 28  1  0  0  0  0
 42 41  1  0  0  0  0
 43 26  1  0  0  0  0
 43 40  1  0  0  0  0
 44 45  1  0  0  0  0
 45 46  1  6  0  0  0
 45 60  1  0  0  0  0
 45 47  1  0  0  0  0
 47 48  1  6  0  0  0
 47 49  1  0  0  0  0
 49 50  1  1  0  0  0
 49 51  1  0  0  0  0
 49 63  1  0  0  0  0
 51 52  1  1  0  0  0
 51 61  1  0  0  0  0
 53 54  1  1  0  0  0
 53 55  1  0  0  0  0
 53 51  1  0  0  0  0
 55 56  1  0  0  0  0
 57 55  1  0  0  0  0
 58 59  1  0  0  0  0
 58 55  1  0  0  0  0
 60 53  1  0  0  0  0
 61 62  1  0  0  0  0
 64 63  1  0  0  0  0
 65 47  1  0  0  0  0
 66 65  1  0  0  0  0
M  END
$$$$
C:\Users\eirik\OneDrive - Norwegian University of Life Sciences\Documents\Masteroppgave\glycam\amylose\pdb\DGlcpa1-4DGlcpa1-4DGlcpa1-4DGlcpa1-OH_structure_min-gas.pdb DGlcpa1-4DGlcpa1-4DGlcpa1-4DGlcpa1-OH_structure_min-gas.pdb
 OpenBabel01122616233D

 87 90  0  0  1  0  0  0  0  0999 V2000
   -3.5380    9.8720   -1.8790 H   0  0  0  0  0  0  0  0  0  0  0  0
   -4.0200   10.0860   -2.6810 O   0  0  0  0  0  0  0  0  0  0  0  0
   -4.0390    8.9360   -3.5480 C   0  0  2  0  0  0  0  0  0  0  0  0
   -3.0100    8.6750   -3.7960 H   0  0  0  0  0  0  0  0  0  0  0  0
   -4.8150    9.2280   -4.8480 C   0  0  1  0  0  0  0  0  0  0  0  0
   -4.6550    8.3890   -5.5280 H   0  0  0  0  0  0  0  0  0  0  0  0
   -6.3240    9.4000   -4.6130 C   0  0  2  0  0  0  0  0  0  0  0  0
   -6.5120   10.3250   -4.0640 H   0  0  0  0  0  0  0  0  0  0  0  0
   -6.9120    8.2040   -3.8390 C   0  0  1  0  0  0  0  0  0  0  0  0
   -6.9080    7.3160   -4.4780 H   0  0  0  0  0  0  0  0  0  0  0  0
   -6.1190    7.8790   -2.5560 C   0  0  1  0  0  0  0  0  0  0  0  0
   -6.2580    8.6930   -1.8420 H   0  0  0  0  0  0  0  0  0  0  0  0
   -6.5370    6.5600   -1.8950 C   0  0  0  0  0  0  0  0  0  0  0  0
   -7.5990    6.5720   -1.6630 H   0  0  0  0  0  0  0  0  0  0  0  0
   -6.3370    5.7160   -2.5560 H   0  0  0  0  0  0  0  0  0  0  0  0
   -5.8060    6.3940   -0.6730 O   0  0  0  0  0  0  0  0  0  0  0  0
   -5.9920    7.1320   -0.0860 H   0  0  0  0  0  0  0  0  0  0  0  0
   -4.6710    7.7790   -2.8820 O   0  0  0  0  0  0  0  0  0  0  0  0
   -4.3810   11.1580   -4.8720 H   0  0  0  0  0  0  0  0  0  0  0  0
   -6.9780    9.4690   -5.8920 O   0  0  0  0  0  0  0  0  0  0  0  0
   -6.6210   10.2060   -6.3940 H   0  0  0  0  0  0  0  0  0  0  0  0
   -4.2740   10.4110   -5.4660 O   0  0  0  0  0  0  0  0  0  0  0  0
   -8.2960    8.5520   -3.4540 O   0  0  0  0  0  0  0  0  0  0  0  0
   -9.3690    7.9560   -4.2790 C   0  0  2  0  0  0  0  0  0  0  0  0
   -9.0240    7.8940   -5.3120 H   0  0  0  0  0  0  0  0  0  0  0  0
  -10.6390    8.8250   -4.2630 C   0  0  1  0  0  0  0  0  0  0  0  0
  -11.3030    8.4750   -5.0550 H   0  0  0  0  0  0  0  0  0  0  0  0
  -11.3790    8.7750   -2.9170 C   0  0  2  0  0  0  0  0  0  0  0  0
  -10.8000    9.3060   -2.1590 H   0  0  0  0  0  0  0  0  0  0  0  0
  -11.6360    7.3300   -2.4520 C   0  0  1  0  0  0  0  0  0  0  0  0
  -12.3870    6.8610   -3.0930 H   0  0  0  0  0  0  0  0  0  0  0  0
  -10.3550    6.4750   -2.4830 C   0  0  1  0  0  0  0  0  0  0  0  0
   -9.6720    6.8620   -1.7260 H   0  0  0  0  0  0  0  0  0  0  0  0
  -10.5960    4.9840   -2.2210 C   0  0  0  0  0  0  0  0  0  0  0  0
  -11.0960    4.8460   -1.2660 H   0  0  0  0  0  0  0  0  0  0  0  0
  -11.2170    4.5480   -3.0040 H   0  0  0  0  0  0  0  0  0  0  0  0
   -9.3330    4.3060   -2.1770 O   0  0  0  0  0  0  0  0  0  0  0  0
   -8.7890    4.6870   -1.4840 H   0  0  0  0  0  0  0  0  0  0  0  0
   -9.7130    6.5970   -3.8170 O   0  0  0  0  0  0  0  0  0  0  0  0
   -9.6620   10.4990   -3.8690 H   0  0  0  0  0  0  0  0  0  0  0  0
  -12.6550    9.4200   -3.0740 O   0  0  0  0  0  0  0  0  0  0  0  0
  -12.5220   10.3260   -3.3640 H   0  0  0  0  0  0  0  0  0  0  0  0
  -10.2680   10.1870   -4.5450 O   0  0  0  0  0  0  0  0  0  0  0  0
  -12.1110    7.4030   -1.0560 O   0  0  0  0  0  0  0  0  0  0  0  0
  -13.5170    7.0210   -0.8100 C   0  0  2  0  0  0  0  0  0  0  0  0
  -14.1070    7.2460   -1.7000 H   0  0  0  0  0  0  0  0  0  0  0  0
  -14.1080    7.8220    0.3630 C   0  0  1  0  0  0  0  0  0  0  0  0
  -15.1860    7.6560    0.3870 H   0  0  0  0  0  0  0  0  0  0  0  0
  -13.4940    7.4210    1.7130 C   0  0  2  0  0  0  0  0  0  0  0  0
  -12.4570    7.7590    1.7600 H   0  0  0  0  0  0  0  0  0  0  0  0
  -13.5540    5.9000    1.9440 C   0  0  1  0  0  0  0  0  0  0  0  0
  -14.5870    5.5950    2.1320 H   0  0  0  0  0  0  0  0  0  0  0  0
  -13.0150    5.0930    0.7470 C   0  0  1  0  0  0  0  0  0  0  0  0
  -11.9370    5.2520    0.6830 H   0  0  0  0  0  0  0  0  0  0  0  0
  -13.2930    3.5890    0.8600 C   0  0  0  0  0  0  0  0  0  0  0  0
  -12.8720    3.1960    1.7820 H   0  0  0  0  0  0  0  0  0  0  0  0
  -14.3660    3.3930    0.8580 H   0  0  0  0  0  0  0  0  0  0  0  0
  -12.6830    2.9100   -0.2460 O   0  0  0  0  0  0  0  0  0  0  0  0
  -11.7380    3.0800   -0.2440 H   0  0  0  0  0  0  0  0  0  0  0  0
  -13.6420    5.5800   -0.5100 O   0  0  0  0  0  0  0  0  0  0  0  0
  -12.9180    9.3760    0.0770 H   0  0  0  0  0  0  0  0  0  0  0  0
  -14.2450    8.0570    2.7620 O   0  0  0  0  0  0  0  0  0  0  0  0
  -14.2250    9.0090    2.6380 H   0  0  0  0  0  0  0  0  0  0  0  0
  -13.8640    9.2210    0.1310 O   0  0  0  0  0  0  0  0  0  0  0  0
  -12.7020    5.6050    3.1120 O   0  0  0  0  0  0  0  0  0  0  0  0
  -13.3990    5.2610    4.3670 C   0  0  2  0  0  0  0  0  0  0  0  0
  -14.3600    5.7770    4.3910 H   0  0  0  0  0  0  0  0  0  0  0  0
  -12.5880    5.7200    5.5920 C   0  0  1  0  0  0  0  0  0  0  0  0
  -13.2270    5.6450    6.4740 H   0  0  0  0  0  0  0  0  0  0  0  0
  -11.3140    4.8870    5.8110 C   0  0  2  0  0  0  0  0  0  0  0  0
  -10.5870    5.1090    5.0270 H   0  0  0  0  0  0  0  0  0  0  0  0
  -11.6290    3.3800    5.8300 C   0  0  1  0  0  0  0  0  0  0  0  0
  -12.1690    3.1230    6.7430 H   0  0  0  0  0  0  0  0  0  0  0  0
  -12.4520    2.9280    4.6050 C   0  0  1  0  0  0  0  0  0  0  0  0
  -11.8350    3.0400    3.7120 H   0  0  0  0  0  0  0  0  0  0  0  0
  -12.9430    1.4770    4.6930 C   0  0  0  0  0  0  0  0  0  0  0  0
  -12.1030    0.7990    4.8470 H   0  0  0  0  0  0  0  0  0  0  0  0
  -13.6410    1.3550    5.5230 H   0  0  0  0  0  0  0  0  0  0  0  0
  -13.5960    1.1290    3.4650 O   0  0  0  0  0  0  0  0  0  0  0  0
  -12.9810    1.2300    2.7350 H   0  0  0  0  0  0  0  0  0  0  0  0
  -13.6430    3.8070    4.4680 O   0  0  0  0  0  0  0  0  0  0  0  0
  -10.3790    2.6690    5.8040 O   0  0  0  0  0  0  0  0  0  0  0  0
   -9.8460    2.9330    6.5580 H   0  0  0  0  0  0  0  0  0  0  0  0
  -10.7610    5.2430    7.0910 O   0  0  0  0  0  0  0  0  0  0  0  0
  -10.5710    6.1840    7.1060 H   0  0  0  0  0  0  0  0  0  0  0  0
  -12.2220    7.1010    5.4090 O   0  0  0  0  0  0  0  0  0  0  0  0
  -11.6860    7.1870    4.6170 H   0  0  0  0  0  0  0  0  0  0  0  0
  2  1  1  0  0  0  0
  3  4  1  6  0  0  0
  3 18  1  0  0  0  0
  3  2  1  0  0  0  0
  5  6  1  6  0  0  0
  5  7  1  0  0  0  0
  5  3  1  0  0  0  0
  7  8  1  1  0  0  0
  7  9  1  0  0  0  0
  9 10  1  6  0  0  0
  9 23  1  0  0  0  0
  9 11  1  0  0  0  0
 11 13  1  0  0  0  0
 11 12  1  1  0  0  0
 13 14  1  0  0  0  0
 13 16  1  0  0  0  0
 15 13  1  0  0  0  0
 16 17  1  0  0  0  0
 18 11  1  0  0  0  0
 20  7  1  0  0  0  0
 21 20  1  0  0  0  0
 22 19  1  0  0  0  0
 22  5  1  0  0  0  0
 24 25  1  6  0  0  0
 24 26  1  0  0  0  0
 24 39  1  0  0  0  0
 24 23  1  0  0  0  0
 26 27  1  6  0  0  0
 26 28  1  0  0  0  0
 28 30  1  0  0  0  0
 28 29  1  1  0  0  0
 30 31  1  6  0  0  0
 30 44  1  0  0  0  0
 32 30  1  0  0  0  0
 32 34  1  0  0  0  0
 32 33  1  1  0  0  0
 34 37  1  0  0  0  0
 34 35  1  0  0  0  0
 36 34  1  0  0  0  0
 37 38  1  0  0  0  0
 39 32  1  0  0  0  0
 41 28  1  0  0  0  0
 42 41  1  0  0  0  0
 43 26  1  0  0  0  0
 43 40  1  0  0  0  0
 44 45  1  0  0  0  0
 45 46  1  6  0  0  0
 45 60  1  0  0  0  0
 45 47  1  0  0  0  0
 47 48  1  1  0  0  0
 47 49  1  0  0  0  0
 49 50  1  1  0  0  0
 49 51  1  0  0  0  0
 49 62  1  0  0  0  0
 51 52  1  1  0  0  0
 51 65  1  0  0  0  0
 53 54  1  6  0  0  0
 53 55  1  0  0  0  0
 53 51  1  0  0  0  0
 55 56  1  0  0  0  0
 57 55  1  0  0  0  0
 58 59  1  0  0  0  0
 58 55  1  0  0  0  0
 60 53  1  0  0  0  0
 61 64  1  0  0  0  0
 63 62  1  0  0  0  0
 64 47  1  0  0  0  0
 65 66  1  0  0  0  0
 66 67  1  1  0  0  0
 66 81  1  0  0  0  0
 66 68  1  0  0  0  0
 68 70  1  0  0  0  0
 68 69  1  1  0  0  0
 70 71  1  6  0  0  0
 70 72  1  0  0  0  0
 70 84  1  0  0  0  0
 72 73  1  1  0  0  0
 74 75  1  6  0  0  0
 74 76  1  0  0  0  0
 74 72  1  0  0  0  0
 76 77  1  0  0  0  0
 76 78  1  0  0  0  0
 79 76  1  0  0  0  0
 80 79  1  0  0  0  0
 81 74  1  0  0  0  0
 82 72  1  0  0  0  0
 82 83  1  0  0  0  0
 84 85  1  0  0  0  0
 86 68  1  0  0  0  0
 87 86  1  0  0  0  0
M  END
$$$$
C:\Users\eirik\OneDrive - Norwegian University of Life Sciences\Documents\Masteroppgave\glycam\amylose\pdb\DGlcpa1-4DGlcpa1-4DGlcpa1-4DGlcpa1-4DGlcpa1-OH_structure_min-gas.pdb DGlcpa1-4DGlcpa1-4DGlcpa1-4DGlcpa1-4DGlcpa1-OH_structure_min-gas.pdb
 OpenBabel01122616233D

108112  0  0  1  0  0  0  0  0999 V2000
   -3.5040    9.8310   -1.8770 H   0  0  0  0  0  0  0  0  0  0  0  0
   -3.9820   10.0550   -2.6780 O   0  0  0  0  0  0  0  0  0  0  0  0
   -4.0230    8.9080   -3.5490 C   0  0  2  0  0  0  0  0  0  0  0  0
   -2.9990    8.6290   -3.7980 H   0  0  0  0  0  0  0  0  0  0  0  0
   -4.7940    9.2180   -4.8460 C   0  0  1  0  0  0  0  0  0  0  0  0
   -4.6520    8.3780   -5.5290 H   0  0  0  0  0  0  0  0  0  0  0  0
   -6.3000    9.4180   -4.6090 C   0  0  2  0  0  0  0  0  0  0  0  0
   -6.4700   10.3450   -4.0580 H   0  0  0  0  0  0  0  0  0  0  0  0
   -6.9110    8.2310   -3.8380 C   0  0  1  0  0  0  0  0  0  0  0  0
   -6.9250    7.3460   -4.4790 H   0  0  0  0  0  0  0  0  0  0  0  0
   -6.1210    7.8870   -2.5570 C   0  0  1  0  0  0  0  0  0  0  0  0
   -6.2440    8.7010   -1.8390 H   0  0  0  0  0  0  0  0  0  0  0  0
   -6.5630    6.5730   -1.9010 C   0  0  0  0  0  0  0  0  0  0  0  0
   -7.6240    6.6030   -1.6690 H   0  0  0  0  0  0  0  0  0  0  0  0
   -6.3780    5.7280   -2.5650 H   0  0  0  0  0  0  0  0  0  0  0  0
   -5.8350    6.3900   -0.6790 O   0  0  0  0  0  0  0  0  0  0  0  0
   -6.0070    7.1280   -0.0910 H   0  0  0  0  0  0  0  0  0  0  0  0
   -4.6760    7.7610   -2.8860 O   0  0  0  0  0  0  0  0  0  0  0  0
   -4.3250   11.1400   -4.8660 H   0  0  0  0  0  0  0  0  0  0  0  0
   -6.9540    9.5030   -5.8880 O   0  0  0  0  0  0  0  0  0  0  0  0
   -6.5840   10.2340   -6.3880 H   0  0  0  0  0  0  0  0  0  0  0  0
   -4.2320   10.3930   -5.4620 O   0  0  0  0  0  0  0  0  0  0  0  0
   -8.2860    8.6060   -3.4480 O   0  0  0  0  0  0  0  0  0  0  0  0
   -9.3720    8.0390   -4.2750 C   0  0  2  0  0  0  0  0  0  0  0  0
   -9.0320    7.9760   -5.3090 H   0  0  0  0  0  0  0  0  0  0  0  0
  -10.6240    8.9350   -4.2500 C   0  0  1  0  0  0  0  0  0  0  0  0
  -11.2980    8.6030   -5.0420 H   0  0  0  0  0  0  0  0  0  0  0  0
  -11.3610    8.8920   -2.9020 C   0  0  2  0  0  0  0  0  0  0  0  0
  -10.7670    9.4050   -2.1420 H   0  0  0  0  0  0  0  0  0  0  0  0
  -11.6470    7.4500   -2.4450 C   0  0  1  0  0  0  0  0  0  0  0  0
  -12.4110    7.0020   -3.0860 H   0  0  0  0  0  0  0  0  0  0  0  0
  -10.3860    6.5660   -2.4870 C   0  0  1  0  0  0  0  0  0  0  0  0
   -9.6920    6.9300   -1.7290 H   0  0  0  0  0  0  0  0  0  0  0  0
  -10.6590    5.0790   -2.2390 C   0  0  0  0  0  0  0  0  0  0  0  0
  -11.1630    4.9410   -1.2860 H   0  0  0  0  0  0  0  0  0  0  0  0
  -11.2890    4.6630   -3.0260 H   0  0  0  0  0  0  0  0  0  0  0  0
   -9.4120    4.3730   -2.2000 O   0  0  0  0  0  0  0  0  0  0  0  0
   -8.8600    4.7350   -1.5040 H   0  0  0  0  0  0  0  0  0  0  0  0
   -9.7440    6.6850   -3.8210 O   0  0  0  0  0  0  0  0  0  0  0  0
   -9.6100   10.5850   -3.8500 H   0  0  0  0  0  0  0  0  0  0  0  0
  -12.6220    9.5670   -3.0500 O   0  0  0  0  0  0  0  0  0  0  0  0
  -12.4700   10.4700   -3.3360 H   0  0  0  0  0  0  0  0  0  0  0  0
  -10.2250   10.2900   -4.5250 O   0  0  0  0  0  0  0  0  0  0  0  0
  -12.1160    7.5230   -1.0460 O   0  0  0  0  0  0  0  0  0  0  0  0
  -13.5410    7.2140   -0.8070 C   0  0  2  0  0  0  0  0  0  0  0  0
  -14.1190    7.5070   -1.6850 H   0  0  0  0  0  0  0  0  0  0  0  0
  -14.0830    7.9990    0.3990 C   0  0  1  0  0  0  0  0  0  0  0  0
  -15.1700    7.8950    0.4200 H   0  0  0  0  0  0  0  0  0  0  0  0
  -13.4940    7.5090    1.7310 C   0  0  2  0  0  0  0  0  0  0  0  0
  -12.4400    7.7890    1.7900 H   0  0  0  0  0  0  0  0  0  0  0  0
  -13.6340    5.9860    1.9020 C   0  0  1  0  0  0  0  0  0  0  0  0
  -14.6800    5.7300    2.0890 H   0  0  0  0  0  0  0  0  0  0  0  0
  -13.1440    5.2010    0.6690 C   0  0  1  0  0  0  0  0  0  0  0  0
  -12.0600    5.3050    0.6090 H   0  0  0  0  0  0  0  0  0  0  0  0
  -13.5010    3.7110    0.7140 C   0  0  0  0  0  0  0  0  0  0  0  0
  -13.1000    3.2560    1.6160 H   0  0  0  0  0  0  0  0  0  0  0  0
  -14.5820    3.5710    0.7070 H   0  0  0  0  0  0  0  0  0  0  0  0
  -12.9270    3.0510   -0.4220 O   0  0  0  0  0  0  0  0  0  0  0  0
  -11.9740    3.1720   -0.4150 H   0  0  0  0  0  0  0  0  0  0  0  0
  -13.7460    5.7730   -0.5640 O   0  0  0  0  0  0  0  0  0  0  0  0
  -12.8050    9.4920    0.1740 H   0  0  0  0  0  0  0  0  0  0  0  0
  -14.2100    8.1400    2.8070 O   0  0  0  0  0  0  0  0  0  0  0  0
  -14.1380    9.0940    2.7230 H   0  0  0  0  0  0  0  0  0  0  0  0
  -13.7590    9.3900    0.2230 O   0  0  0  0  0  0  0  0  0  0  0  0
  -12.7890    5.6090    3.0520 O   0  0  0  0  0  0  0  0  0  0  0  0
  -13.4770    5.1110    4.2600 C   0  0  2  0  0  0  0  0  0  0  0  0
  -14.4690    5.5600    4.3150 H   0  0  0  0  0  0  0  0  0  0  0  0
  -12.7050    5.5070    5.5300 C   0  0  1  0  0  0  0  0  0  0  0  0
  -13.3280    5.2880    6.3980 H   0  0  0  0  0  0  0  0  0  0  0  0
  -11.3670    4.7630    5.6540 C   0  0  2  0  0  0  0  0  0  0  0  0
  -10.6730    5.1220    4.8900 H   0  0  0  0  0  0  0  0  0  0  0  0
  -11.5410    3.2400    5.5190 C   0  0  1  0  0  0  0  0  0  0  0  0
  -12.0350    2.8450    6.4110 H   0  0  0  0  0  0  0  0  0  0  0  0
  -12.3700    2.8380    4.2830 C   0  0  1  0  0  0  0  0  0  0  0  0
  -11.7840    3.0530    3.3870 H   0  0  0  0  0  0  0  0  0  0  0  0
  -12.7610    1.3550    4.2810 C   0  0  0  0  0  0  0  0  0  0  0  0
  -11.8720    0.7310    4.3420 H   0  0  0  0  0  0  0  0  0  0  0  0
  -13.4040    1.1230    5.1310 H   0  0  0  0  0  0  0  0  0  0  0  0
  -13.4520    1.0470    3.0630 O   0  0  0  0  0  0  0  0  0  0  0  0
  -12.8860    1.2480    2.3140 H   0  0  0  0  0  0  0  0  0  0  0  0
  -13.6210    3.6410    4.2340 O   0  0  0  0  0  0  0  0  0  0  0  0
  -11.9310    7.1350    4.7130 H   0  0  0  0  0  0  0  0  0  0  0  0
  -10.8140    5.0320    6.9550 O   0  0  0  0  0  0  0  0  0  0  0  0
  -10.6970    5.9780    7.0630 H   0  0  0  0  0  0  0  0  0  0  0  0
  -12.4550    6.9240    5.4900 O   0  0  0  0  0  0  0  0  0  0  0  0
  -10.1920    2.6590    5.3710 O   0  0  0  0  0  0  0  0  0  0  0  0
   -9.6550    1.9350    6.5400 C   0  0  2  0  0  0  0  0  0  0  0  0
  -10.0660    2.3760    7.4490 H   0  0  0  0  0  0  0  0  0  0  0  0
   -8.1220    2.0590    6.6090 C   0  0  1  0  0  0  0  0  0  0  0  0
   -7.7940    1.7030    7.5880 H   0  0  0  0  0  0  0  0  0  0  0  0
   -7.4070    1.2590    5.5080 C   0  0  2  0  0  0  0  0  0  0  0  0
   -7.5750    1.7320    4.5380 H   0  0  0  0  0  0  0  0  0  0  0  0
   -7.8910   -0.2020    5.4750 C   0  0  1  0  0  0  0  0  0  0  0  0
   -7.5210   -0.7370    6.3530 H   0  0  0  0  0  0  0  0  0  0  0  0
   -9.4280   -0.3190    5.4160 C   0  0  1  0  0  0  0  0  0  0  0  0
   -9.7700    0.0750    4.4570 H   0  0  0  0  0  0  0  0  0  0  0  0
   -9.9440   -1.7560    5.5760 C   0  0  0  0  0  0  0  0  0  0  0  0
   -9.4920   -2.4090    4.8290 H   0  0  0  0  0  0  0  0  0  0  0  0
   -9.7020   -2.1450    6.5660 H   0  0  0  0  0  0  0  0  0  0  0  0
  -11.3670   -1.7650    5.3950 O   0  0  0  0  0  0  0  0  0  0  0  0
  -11.5800   -1.4280    4.5220 H   0  0  0  0  0  0  0  0  0  0  0  0
  -10.0210    0.5040    6.5020 O   0  0  0  0  0  0  0  0  0  0  0  0
   -7.3590   -0.8150    4.2880 O   0  0  0  0  0  0  0  0  0  0  0  0
   -6.4000   -0.7570    4.3010 H   0  0  0  0  0  0  0  0  0  0  0  0
   -5.9980    1.2560    5.8000 O   0  0  0  0  0  0  0  0  0  0  0  0
   -5.6780    2.1610    5.8410 H   0  0  0  0  0  0  0  0  0  0  0  0
   -7.7680    3.4490    6.4870 O   0  0  0  0  0  0  0  0  0  0  0  0
   -8.0790    3.7850    5.6430 H   0  0  0  0  0  0  0  0  0  0  0  0
  2  1  1  0  0  0  0
  3  4  1  6  0  0  0
  3 18  1  0  0  0  0
  3  2  1  0  0  0  0
  5  6  1  6  0  0  0
  5  7  1  0  0  0  0
  5  3  1  0  0  0  0
  7  8  1  1  0  0  0
  7  9  1  0  0  0  0
  9 10  1  6  0  0  0
  9 23  1  0  0  0  0
  9 11  1  0  0  0  0
 11 13  1  0  0  0  0
 11 12  1  1  0  0  0
 13 14  1  0  0  0  0
 13 16  1  0  0  0  0
 15 13  1  0  0  0  0
 16 17  1  0  0  0  0
 18 11  1  0  0  0  0
 20  7  1  0  0  0  0
 21 20  1  0  0  0  0
 22 19  1  0  0  0  0
 22  5  1  0  0  0  0
 24 25  1  6  0  0  0
 24 26  1  0  0  0  0
 24 39  1  0  0  0  0
 24 23  1  0  0  0  0
 26 27  1  6  0  0  0
 26 28  1  0  0  0  0
 28 30  1  0  0  0  0
 28 29  1  1  0  0  0
 30 31  1  6  0  0  0
 30 44  1  0  0  0  0
 32 30  1  0  0  0  0
 32 34  1  0  0  0  0
 32 33  1  1  0  0  0
 34 37  1  0  0  0  0
 34 35  1  0  0  0  0
 36 34  1  0  0  0  0
 37 38  1  0  0  0  0
 39 32  1  0  0  0  0
 41 28  1  0  0  0  0
 42 41  1  0  0  0  0
 43 26  1  0  0  0  0
 43 40  1  0  0  0  0
 44 45  1  0  0  0  0
 45 46  1  6  0  0  0
 45 60  1  0  0  0  0
 45 47  1  0  0  0  0
 47 48  1  1  0  0  0
 47 49  1  0  0  0  0
 49 50  1  1  0  0  0
 49 51  1  0  0  0  0
 49 62  1  0  0  0  0
 51 52  1  1  0  0  0
 51 65  1  0  0  0  0
 53 54  1  6  0  0  0
 53 55  1  0  0  0  0
 53 51  1  0  0  0  0
 55 56  1  0  0  0  0
 57 55  1  0  0  0  0
 58 59  1  0  0  0  0
 58 55  1  0  0  0  0
 60 53  1  0  0  0  0
 61 64  1  0  0  0  0
 63 62  1  0  0  0  0
 64 47  1  0  0  0  0
 65 66  1  0  0  0  0
 66 67  1  1  0  0  0
 66 68  1  0  0  0  0
 68 70  1  0  0  0  0
 68 69  1  1  0  0  0
 70 71  1  6  0  0  0
 70 83  1  0  0  0  0
 72 70  1  0  0  0  0
 72 73  1  1  0  0  0
 74 75  1  6  0  0  0
 74 72  1  0  0  0  0
 76 74  1  0  0  0  0
 76 77  1  0  0  0  0
 76 78  1  0  0  0  0
 79 76  1  0  0  0  0
 80 79  1  0  0  0  0
 81 66  1  0  0  0  0
 81 74  1  0  0  0  0
 82 85  1  0  0  0  0
 83 84  1  0  0  0  0
 85 68  1  0  0  0  0
 86 72  1  0  0  0  0
 86 87  1  0  0  0  0
 87 89  1  0  0  0  0
 87 88  1  1  0  0  0
 89 90  1  1  0  0  0
 91 92  1  6  0  0  0
 91105  1  0  0  0  0
 91 89  1  0  0  0  0
 93 91  1  0  0  0  0
 93 94  1  1  0  0  0
 95 96  1  6  0  0  0
 95 93  1  0  0  0  0
 95 97  1  0  0  0  0
 95102  1  0  0  0  0
 97 99  1  0  0  0  0
 98 97  1  0  0  0  0
100 97  1  0  0  0  0
101100  1  0  0  0  0
102 87  1  0  0  0  0
103104  1  0  0  0  0
103 93  1  0  0  0  0
105106  1  0  0  0  0
107 89  1  0  0  0  0
108107  1  0  0  0  0
M  END
$$$$
C:\Users\eirik\OneDrive - Norwegian University of Life Sciences\Documents\Masteroppgave\glycam\amylose\pdb\DGlcpa1-4DGlcpa1-4DGlcpa1-4DGlcpa1-4DGlcpa1-4DGlcpa1-OH_structure_min-gas.pdb DGlcpa1-4DGlcpa1-4DGlcpa1-4DGlcpa1-4DGlcpa1-4DGlcpa1-OH_structure_min-gas.pdb
 OpenBabel01122616233D

129134  0  0  1  0  0  0  0  0999 V2000
   -3.4980    9.8130   -1.8770 H   0  0  0  0  0  0  0  0  0  0  0  0
   -3.9740   10.0370   -2.6800 O   0  0  0  0  0  0  0  0  0  0  0  0
   -4.0140    8.8890   -3.5490 C   0  0  2  0  0  0  0  0  0  0  0  0
   -2.9900    8.6070   -3.7940 H   0  0  0  0  0  0  0  0  0  0  0  0
   -4.7820    9.1980   -4.8490 C   0  0  1  0  0  0  0  0  0  0  0  0
   -4.6390    8.3560   -5.5300 H   0  0  0  0  0  0  0  0  0  0  0  0
   -6.2870    9.4020   -4.6160 C   0  0  2  0  0  0  0  0  0  0  0  0
   -6.4560   10.3300   -4.0670 H   0  0  0  0  0  0  0  0  0  0  0  0
   -6.9030    8.2180   -3.8440 C   0  0  1  0  0  0  0  0  0  0  0  0
   -6.9200    7.3320   -4.4830 H   0  0  0  0  0  0  0  0  0  0  0  0
   -6.1170    7.8730   -2.5610 C   0  0  1  0  0  0  0  0  0  0  0  0
   -6.2400    8.6870   -1.8440 H   0  0  0  0  0  0  0  0  0  0  0  0
   -6.5630    6.5600   -1.9060 C   0  0  0  0  0  0  0  0  0  0  0  0
   -7.6250    6.5920   -1.6780 H   0  0  0  0  0  0  0  0  0  0  0  0
   -6.3760    5.7140   -2.5680 H   0  0  0  0  0  0  0  0  0  0  0  0
   -5.8400    6.3770   -0.6810 O   0  0  0  0  0  0  0  0  0  0  0  0
   -6.0130    7.1160   -0.0930 H   0  0  0  0  0  0  0  0  0  0  0  0
   -4.6710    7.7440   -2.8850 O   0  0  0  0  0  0  0  0  0  0  0  0
   -4.3090   11.1190   -4.8720 H   0  0  0  0  0  0  0  0  0  0  0  0
   -6.9380    9.4850   -5.8960 O   0  0  0  0  0  0  0  0  0  0  0  0
   -6.5650   10.2140   -6.3970 H   0  0  0  0  0  0  0  0  0  0  0  0
   -4.2150   10.3700   -5.4650 O   0  0  0  0  0  0  0  0  0  0  0  0
   -8.2770    8.5990   -3.4570 O   0  0  0  0  0  0  0  0  0  0  0  0
   -9.3650    8.0300   -4.2790 C   0  0  2  0  0  0  0  0  0  0  0  0
   -9.0230    7.9540   -5.3120 H   0  0  0  0  0  0  0  0  0  0  0  0
  -10.6120    8.9330   -4.2650 C   0  0  1  0  0  0  0  0  0  0  0  0
  -11.2880    8.5950   -5.0520 H   0  0  0  0  0  0  0  0  0  0  0  0
  -11.3460    8.9120   -2.9160 C   0  0  2  0  0  0  0  0  0  0  0  0
  -10.7480    9.4320   -2.1640 H   0  0  0  0  0  0  0  0  0  0  0  0
  -11.6410    7.4780   -2.4390 C   0  0  1  0  0  0  0  0  0  0  0  0
  -12.4130    7.0280   -3.0700 H   0  0  0  0  0  0  0  0  0  0  0  0
  -10.3880    6.5820   -2.4760 C   0  0  1  0  0  0  0  0  0  0  0  0
   -9.6900    6.9470   -1.7220 H   0  0  0  0  0  0  0  0  0  0  0  0
  -10.6760    5.1000   -2.2140 C   0  0  0  0  0  0  0  0  0  0  0  0
  -11.1820    4.9760   -1.2600 H   0  0  0  0  0  0  0  0  0  0  0  0
  -11.3090    4.6840   -2.9980 H   0  0  0  0  0  0  0  0  0  0  0  0
   -9.4350    4.3830   -2.1680 O   0  0  0  0  0  0  0  0  0  0  0  0
   -8.8800    4.7470   -1.4750 H   0  0  0  0  0  0  0  0  0  0  0  0
   -9.7460    6.6830   -3.8120 O   0  0  0  0  0  0  0  0  0  0  0  0
   -9.5860   10.5820   -3.8880 H   0  0  0  0  0  0  0  0  0  0  0  0
  -12.6030    9.5930   -3.0700 O   0  0  0  0  0  0  0  0  0  0  0  0
  -12.4450   10.4920   -3.3690 H   0  0  0  0  0  0  0  0  0  0  0  0
  -10.2040   10.2810   -4.5590 O   0  0  0  0  0  0  0  0  0  0  0  0
  -12.1010    7.5740   -1.0390 O   0  0  0  0  0  0  0  0  0  0  0  0
  -13.5280    7.2860   -0.7870 C   0  0  2  0  0  0  0  0  0  0  0  0
  -14.1080    7.5750   -1.6650 H   0  0  0  0  0  0  0  0  0  0  0  0
  -14.0520    8.0910    0.4140 C   0  0  1  0  0  0  0  0  0  0  0  0
  -15.1390    7.9990    0.4440 H   0  0  0  0  0  0  0  0  0  0  0  0
  -13.4570    7.6110    1.7460 C   0  0  2  0  0  0  0  0  0  0  0  0
  -12.3990    7.8790    1.7920 H   0  0  0  0  0  0  0  0  0  0  0  0
  -13.6130    6.0920    1.9370 C   0  0  1  0  0  0  0  0  0  0  0  0
  -14.6600    5.8500    2.1370 H   0  0  0  0  0  0  0  0  0  0  0  0
  -13.1450    5.2850    0.7100 C   0  0  1  0  0  0  0  0  0  0  0  0
  -12.0590    5.3730    0.6390 H   0  0  0  0  0  0  0  0  0  0  0  0
  -13.5220    3.8010    0.7750 C   0  0  0  0  0  0  0  0  0  0  0  0
  -13.1240    3.3510    1.6800 H   0  0  0  0  0  0  0  0  0  0  0  0
  -14.6060    3.6770    0.7750 H   0  0  0  0  0  0  0  0  0  0  0  0
  -12.9640    3.1200   -0.3570 O   0  0  0  0  0  0  0  0  0  0  0  0
  -12.0100    3.2260   -0.3560 H   0  0  0  0  0  0  0  0  0  0  0  0
  -13.7490    5.8500   -0.5250 O   0  0  0  0  0  0  0  0  0  0  0  0
  -12.7590    9.5670    0.1580 H   0  0  0  0  0  0  0  0  0  0  0  0
  -14.1560    8.2640    2.8200 O   0  0  0  0  0  0  0  0  0  0  0  0
  -14.0750    9.2160    2.7230 H   0  0  0  0  0  0  0  0  0  0  0  0
  -13.7130    9.4760    0.2180 O   0  0  0  0  0  0  0  0  0  0  0  0
  -12.7610    5.7180    3.0840 O   0  0  0  0  0  0  0  0  0  0  0  0
  -13.4490    5.2860    4.3170 C   0  0  2  0  0  0  0  0  0  0  0  0
  -14.4130    5.7920    4.3830 H   0  0  0  0  0  0  0  0  0  0  0  0
  -12.6290    5.6610    5.5640 C   0  0  1  0  0  0  0  0  0  0  0  0
  -13.2480    5.4990    6.4480 H   0  0  0  0  0  0  0  0  0  0  0  0
  -11.3360    4.8410    5.6810 C   0  0  2  0  0  0  0  0  0  0  0  0
  -10.6370    5.1450    4.9000 H   0  0  0  0  0  0  0  0  0  0  0  0
  -11.6000    3.3280    5.5790 C   0  0  1  0  0  0  0  0  0  0  0  0
  -12.0950    2.9780    6.4890 H   0  0  0  0  0  0  0  0  0  0  0  0
  -12.4750    2.9540    4.3660 C   0  0  1  0  0  0  0  0  0  0  0  0
  -11.8930    3.1210    3.4580 H   0  0  0  0  0  0  0  0  0  0  0  0
  -12.9530    1.4980    4.3920 C   0  0  0  0  0  0  0  0  0  0  0  0
  -12.1020    0.8240    4.4420 H   0  0  0  0  0  0  0  0  0  0  0  0
  -13.5900    1.3150    5.2580 H   0  0  0  0  0  0  0  0  0  0  0  0
  -13.6860    1.2160    3.1920 O   0  0  0  0  0  0  0  0  0  0  0  0
  -13.1260    1.3740    2.4300 H   0  0  0  0  0  0  0  0  0  0  0  0
  -13.6780    3.8270    4.3250 O   0  0  0  0  0  0  0  0  0  0  0  0
  -11.7750    7.2200    4.6970 H   0  0  0  0  0  0  0  0  0  0  0  0
  -10.7470    5.0990    6.9680 O   0  0  0  0  0  0  0  0  0  0  0  0
  -10.5710    6.0380    7.0570 H   0  0  0  0  0  0  0  0  0  0  0  0
  -12.2960    7.0590    5.4870 O   0  0  0  0  0  0  0  0  0  0  0  0
  -10.2840    2.6770    5.4170 O   0  0  0  0  0  0  0  0  0  0  0  0
   -9.8180    1.8190    6.5250 C   0  0  2  0  0  0  0  0  0  0  0  0
  -10.2460    2.1820    7.4600 H   0  0  0  0  0  0  0  0  0  0  0  0
   -8.2860    1.8730    6.6510 C   0  0  1  0  0  0  0  0  0  0  0  0
   -7.9970    1.3860    7.5840 H   0  0  0  0  0  0  0  0  0  0  0  0
   -7.5780    1.1890    5.4720 C   0  0  2  0  0  0  0  0  0  0  0  0
   -7.7130    1.7840    4.5660 H   0  0  0  0  0  0  0  0  0  0  0  0
   -8.1030   -0.2390    5.2370 C   0  0  1  0  0  0  0  0  0  0  0  0
   -7.7630   -0.8930    6.0440 H   0  0  0  0  0  0  0  0  0  0  0  0
   -9.6410   -0.3070    5.1670 C   0  0  1  0  0  0  0  0  0  0  0  0
   -9.9700    0.1880    4.2510 H   0  0  0  0  0  0  0  0  0  0  0  0
  -10.1780   -1.7440    5.1810 C   0  0  0  0  0  0  0  0  0  0  0  0
   -9.7520   -2.3120    4.3570 H   0  0  0  0  0  0  0  0  0  0  0  0
   -9.9200   -2.2430    6.1150 H   0  0  0  0  0  0  0  0  0  0  0  0
  -11.6030   -1.7210    5.0300 O   0  0  0  0  0  0  0  0  0  0  0  0
  -11.8310   -1.2830    4.2070 H   0  0  0  0  0  0  0  0  0  0  0  0
  -10.2270    0.4130    6.3290 O   0  0  0  0  0  0  0  0  0  0  0  0
   -8.1530    3.7010    5.9050 H   0  0  0  0  0  0  0  0  0  0  0  0
   -6.1740    1.1010    5.7730 O   0  0  0  0  0  0  0  0  0  0  0  0
   -5.8230    1.9810    5.9260 H   0  0  0  0  0  0  0  0  0  0  0  0
   -7.8800    3.2530    6.7090 O   0  0  0  0  0  0  0  0  0  0  0  0
   -7.5650   -0.6920    3.9390 O   0  0  0  0  0  0  0  0  0  0  0  0
   -6.4890   -1.7020    3.9900 C   0  0  2  0  0  0  0  0  0  0  0  0
   -5.9200   -1.5670    4.9100 H   0  0  0  0  0  0  0  0  0  0  0  0
   -5.5170   -1.5340    2.8080 C   0  0  1  0  0  0  0  0  0  0  0  0
   -4.6340   -2.1460    3.0020 H   0  0  0  0  0  0  0  0  0  0  0  0
   -6.1380   -1.9420    1.4620 C   0  0  2  0  0  0  0  0  0  0  0  0
   -6.8960   -1.2130    1.1670 H   0  0  0  0  0  0  0  0  0  0  0  0
   -6.7570   -3.3500    1.5360 C   0  0  1  0  0  0  0  0  0  0  0  0
   -5.9670   -4.1010    1.6030 H   0  0  0  0  0  0  0  0  0  0  0  0
   -7.7220   -3.5140    2.7280 C   0  0  1  0  0  0  0  0  0  0  0  0
   -8.5890   -2.8720    2.5650 H   0  0  0  0  0  0  0  0  0  0  0  0
   -8.2020   -4.9570    2.9380 C   0  0  0  0  0  0  0  0  0  0  0  0
   -8.6650   -5.3400    2.0280 H   0  0  0  0  0  0  0  0  0  0  0  0
   -7.3670   -5.6070    3.2000 H   0  0  0  0  0  0  0  0  0  0  0  0
   -9.1730   -4.9780    3.9930 O   0  0  0  0  0  0  0  0  0  0  0  0
   -9.9110   -4.4100    3.7600 H   0  0  0  0  0  0  0  0  0  0  0  0
   -7.0370   -3.0750    3.9720 O   0  0  0  0  0  0  0  0  0  0  0  0
   -7.5110   -3.5630    0.3290 O   0  0  0  0  0  0  0  0  0  0  0  0
   -6.9310   -3.4670   -0.4300 H   0  0  0  0  0  0  0  0  0  0  0  0
   -5.0890   -1.9670    0.4760 O   0  0  0  0  0  0  0  0  0  0  0  0
   -4.6770   -1.1010    0.4250 H   0  0  0  0  0  0  0  0  0  0  0  0
   -5.1110   -0.1550    2.7410 O   0  0  0  0  0  0  0  0  0  0  0  0
   -5.8820    0.3990    2.6030 H   0  0  0  0  0  0  0  0  0  0  0  0
  2  1  1  0  0  0  0
  3  4  1  6  0  0  0
  3 18  1  0  0  0  0
  3  2  1  0  0  0  0
  5  6  1  6  0  0  0
  5  7  1  0  0  0  0
  5  3  1  0  0  0  0
  7  8  1  1  0  0  0
  7  9  1  0  0  0  0
  9 10  1  6  0  0  0
  9 23  1  0  0  0  0
  9 11  1  0  0  0  0
 11 13  1  0  0  0  0
 11 12  1  1  0  0  0
 13 14  1  0  0  0  0
 13 16  1  0  0  0  0
 15 13  1  0  0  0  0
 16 17  1  0  0  0  0
 18 11  1  0  0  0  0
 20  7  1  0  0  0  0
 21 20  1  0  0  0  0
 22 19  1  0  0  0  0
 22  5  1  0  0  0  0
 24 25  1  6  0  0  0
 24 26  1  0  0  0  0
 24 39  1  0  0  0  0
 24 23  1  0  0  0  0
 26 27  1  6  0  0  0
 26 28  1  0  0  0  0
 28 30  1  0  0  0  0
 28 29  1  1  0  0  0
 30 31  1  6  0  0  0
 30 44  1  0  0  0  0
 32 30  1  0  0  0  0
 32 34  1  0  0  0  0
 32 33  1  1  0  0  0
 34 37  1  0  0  0  0
 34 35  1  0  0  0  0
 36 34  1  0  0  0  0
 37 38  1  0  0  0  0
 39 32  1  0  0  0  0
 41 28  1  0  0  0  0
 42 41  1  0  0  0  0
 43 26  1  0  0  0  0
 43 40  1  0  0  0  0
 44 45  1  0  0  0  0
 45 46  1  6  0  0  0
 45 60  1  0  0  0  0
 45 47  1  0  0  0  0
 47 48  1  1  0  0  0
 47 49  1  0  0  0  0
 49 50  1  1  0  0  0
 49 51  1  0  0  0  0
 49 62  1  0  0  0  0
 51 52  1  1  0  0  0
 51 65  1  0  0  0  0
 53 54  1  6  0  0  0
 53 55  1  0  0  0  0
 53 51  1  0  0  0  0
 55 56  1  0  0  0  0
 57 55  1  0  0  0  0
 58 59  1  0  0  0  0
 58 55  1  0  0  0  0
 60 53  1  0  0  0  0
 61 64  1  0  0  0  0
 63 62  1  0  0  0  0
 64 47  1  0  0  0  0
 65 66  1  0  0  0  0
 66 81  1  0  0  0  0
 66 67  1  1  0  0  0
 66 68  1  0  0  0  0
 68 70  1  0  0  0  0
 68 69  1  1  0  0  0
 70 71  1  6  0  0  0
 70 83  1  0  0  0  0
 72 70  1  0  0  0  0
 72 73  1  1  0  0  0
 74 75  1  6  0  0  0
 74 76  1  0  0  0  0
 74 72  1  0  0  0  0
 76 77  1  0  0  0  0
 76 78  1  0  0  0  0
 79 76  1  0  0  0  0
 80 79  1  0  0  0  0
 81 74  1  0  0  0  0
 82 85  1  0  0  0  0
 83 84  1  0  0  0  0
 85 68  1  0  0  0  0
 86 72  1  0  0  0  0
 86 87  1  0  0  0  0
 87 89  1  0  0  0  0
 87 88  1  1  0  0  0
 89106  1  0  0  0  0
 89 90  1  1  0  0  0
 91 92  1  6  0  0  0
 91104  1  0  0  0  0
 91 89  1  0  0  0  0
 93 91  1  0  0  0  0
 93 94  1  1  0  0  0
 95 96  1  6  0  0  0
 95 97  1  0  0  0  0
 95 93  1  0  0  0  0
 95102  1  0  0  0  0
 97 99  1  0  0  0  0
 98 97  1  0  0  0  0
100 97  1  0  0  0  0
101100  1  0  0  0  0
102 87  1  0  0  0  0
103106  1  0  0  0  0
104105  1  0  0  0  0
107108  1  0  0  0  0
107 93  1  0  0  0  0
108109  1  1  0  0  0
110111  1  1  0  0  0
110108  1  0  0  0  0
112113  1  6  0  0  0
112114  1  0  0  0  0
112110  1  0  0  0  0
114115  1  1  0  0  0
114116  1  0  0  0  0
116117  1  6  0  0  0
116118  1  0  0  0  0
116123  1  0  0  0  0
118120  1  0  0  0  0
118121  1  0  0  0  0
119118  1  0  0  0  0
122121  1  0  0  0  0
123108  1  0  0  0  0
124114  1  0  0  0  0
125124  1  0  0  0  0
126112  1  0  0  0  0
127126  1  0  0  0  0
128110  1  0  0  0  0
129128  1  0  0  0  0
M  END
$$$$
C:\Users\eirik\OneDrive - Norwegian University of Life Sciences\Documents\Masteroppgave\glycam\amylose\pdb\DGlcpa1-4DGlcpa1-4DGlcpa1-4DGlcpa1-4DGlcpa1-4DGlcpa1-4DGlcpa1-OH_structure_min-gas.pdb DGlcpa1-4DGlcpa1-4DGlcpa1-4DGlcpa1-4DGlcpa1-4DGlcpa1-4DGlcpa1-OH_structure_min-gas.pdb
 OpenBabel01122616233D

150156  0  0  1  0  0  0  0  0999 V2000
   -3.5060    9.8080   -1.8720 H   0  0  0  0  0  0  0  0  0  0  0  0
   -3.9800   10.0300   -2.6770 O   0  0  0  0  0  0  0  0  0  0  0  0
   -4.0170    8.8810   -3.5440 C   0  0  2  0  0  0  0  0  0  0  0  0
   -2.9920    8.6000   -3.7860 H   0  0  0  0  0  0  0  0  0  0  0  0
   -4.7800    9.1870   -4.8470 C   0  0  1  0  0  0  0  0  0  0  0  0
   -4.6350    8.3450   -5.5260 H   0  0  0  0  0  0  0  0  0  0  0  0
   -6.2870    9.3900   -4.6190 C   0  0  2  0  0  0  0  0  0  0  0  0
   -6.4580   10.3190   -4.0720 H   0  0  0  0  0  0  0  0  0  0  0  0
   -6.9030    8.2070   -3.8460 C   0  0  1  0  0  0  0  0  0  0  0  0
   -6.9180    7.3200   -4.4850 H   0  0  0  0  0  0  0  0  0  0  0  0
   -6.1210    7.8640   -2.5610 C   0  0  1  0  0  0  0  0  0  0  0  0
   -6.2470    8.6800   -1.8450 H   0  0  0  0  0  0  0  0  0  0  0  0
   -6.5680    6.5520   -1.9050 C   0  0  0  0  0  0  0  0  0  0  0  0
   -7.6310    6.5830   -1.6810 H   0  0  0  0  0  0  0  0  0  0  0  0
   -6.3790    5.7050   -2.5660 H   0  0  0  0  0  0  0  0  0  0  0  0
   -5.8490    6.3710   -0.6780 O   0  0  0  0  0  0  0  0  0  0  0  0
   -6.0240    7.1110   -0.0920 H   0  0  0  0  0  0  0  0  0  0  0  0
   -4.6740    7.7360   -2.8810 O   0  0  0  0  0  0  0  0  0  0  0  0
   -4.3090   11.1080   -4.8710 H   0  0  0  0  0  0  0  0  0  0  0  0
   -6.9340    9.4710   -5.9010 O   0  0  0  0  0  0  0  0  0  0  0  0
   -6.5600   10.1990   -6.4020 H   0  0  0  0  0  0  0  0  0  0  0  0
   -4.2130   10.3590   -5.4630 O   0  0  0  0  0  0  0  0  0  0  0  0
   -8.2790    8.5870   -3.4640 O   0  0  0  0  0  0  0  0  0  0  0  0
   -9.3650    8.0140   -4.2890 C   0  0  2  0  0  0  0  0  0  0  0  0
   -9.0190    7.9350   -5.3200 H   0  0  0  0  0  0  0  0  0  0  0  0
  -10.6110    8.9170   -4.2820 C   0  0  1  0  0  0  0  0  0  0  0  0
  -11.2860    8.5760   -5.0690 H   0  0  0  0  0  0  0  0  0  0  0  0
  -11.3490    8.9020   -2.9340 C   0  0  2  0  0  0  0  0  0  0  0  0
  -10.7530    9.4250   -2.1830 H   0  0  0  0  0  0  0  0  0  0  0  0
  -11.6450    7.4700   -2.4520 C   0  0  1  0  0  0  0  0  0  0  0  0
  -12.4160    7.0180   -3.0810 H   0  0  0  0  0  0  0  0  0  0  0  0
  -10.3920    6.5740   -2.4820 C   0  0  1  0  0  0  0  0  0  0  0  0
   -9.6960    6.9410   -1.7280 H   0  0  0  0  0  0  0  0  0  0  0  0
  -10.6810    5.0930   -2.2160 C   0  0  0  0  0  0  0  0  0  0  0  0
  -11.1900    4.9720   -1.2640 H   0  0  0  0  0  0  0  0  0  0  0  0
  -11.3120    4.6740   -3.0010 H   0  0  0  0  0  0  0  0  0  0  0  0
   -9.4410    4.3750   -2.1640 O   0  0  0  0  0  0  0  0  0  0  0  0
   -8.8870    4.7420   -1.4710 H   0  0  0  0  0  0  0  0  0  0  0  0
   -9.7470    6.6690   -3.8170 O   0  0  0  0  0  0  0  0  0  0  0  0
   -9.5880   10.5680   -3.9090 H   0  0  0  0  0  0  0  0  0  0  0  0
  -12.6060    9.5820   -3.0950 O   0  0  0  0  0  0  0  0  0  0  0  0
  -12.4480   10.4790   -3.3970 H   0  0  0  0  0  0  0  0  0  0  0  0
  -10.2030   10.2650   -4.5810 O   0  0  0  0  0  0  0  0  0  0  0  0
  -12.1060    7.5730   -1.0530 O   0  0  0  0  0  0  0  0  0  0  0  0
  -13.5310    7.2770   -0.7980 C   0  0  2  0  0  0  0  0  0  0  0  0
  -14.1130    7.5520   -1.6790 H   0  0  0  0  0  0  0  0  0  0  0  0
  -14.0600    8.0920    0.3940 C   0  0  1  0  0  0  0  0  0  0  0  0
  -15.1460    7.9900    0.4280 H   0  0  0  0  0  0  0  0  0  0  0  0
  -13.4570    7.6340    1.7300 C   0  0  2  0  0  0  0  0  0  0  0  0
  -12.4020    7.9130    1.7700 H   0  0  0  0  0  0  0  0  0  0  0  0
  -13.5980    6.1160    1.9410 C   0  0  1  0  0  0  0  0  0  0  0  0
  -14.6410    5.8670    2.1520 H   0  0  0  0  0  0  0  0  0  0  0  0
  -13.1300    5.2970    0.7210 C   0  0  1  0  0  0  0  0  0  0  0  0
  -12.0460    5.3890    0.6450 H   0  0  0  0  0  0  0  0  0  0  0  0
  -13.5020    3.8120    0.8070 C   0  0  0  0  0  0  0  0  0  0  0  0
  -13.1000    3.3760    1.7170 H   0  0  0  0  0  0  0  0  0  0  0  0
  -14.5850    3.6830    0.8110 H   0  0  0  0  0  0  0  0  0  0  0  0
  -12.9420    3.1180   -0.3170 O   0  0  0  0  0  0  0  0  0  0  0  0
  -11.9890    3.2300   -0.3200 H   0  0  0  0  0  0  0  0  0  0  0  0
  -13.7420    5.8430   -0.5190 O   0  0  0  0  0  0  0  0  0  0  0  0
  -12.7830    9.5770    0.1170 H   0  0  0  0  0  0  0  0  0  0  0  0
  -14.1590    8.2940    2.7980 O   0  0  0  0  0  0  0  0  0  0  0  0
  -14.0870    9.2450    2.6890 H   0  0  0  0  0  0  0  0  0  0  0  0
  -13.7360    9.4780    0.1800 O   0  0  0  0  0  0  0  0  0  0  0  0
  -12.7350    5.7650    3.0860 O   0  0  0  0  0  0  0  0  0  0  0  0
  -13.4100    5.3480    4.3320 C   0  0  2  0  0  0  0  0  0  0  0  0
  -14.3750    5.8500    4.3980 H   0  0  0  0  0  0  0  0  0  0  0  0
  -12.5800    5.7460    5.5650 C   0  0  1  0  0  0  0  0  0  0  0  0
  -13.1900    5.5920    6.4570 H   0  0  0  0  0  0  0  0  0  0  0  0
  -11.2810    4.9350    5.6810 C   0  0  2  0  0  0  0  0  0  0  0  0
  -10.5910    5.2320    4.8880 H   0  0  0  0  0  0  0  0  0  0  0  0
  -11.5360    3.4190    5.6040 C   0  0  1  0  0  0  0  0  0  0  0  0
  -12.0200    3.0800    6.5230 H   0  0  0  0  0  0  0  0  0  0  0  0
  -12.4220    3.0220    4.4050 C   0  0  1  0  0  0  0  0  0  0  0  0
  -11.8500    3.1770    3.4890 H   0  0  0  0  0  0  0  0  0  0  0  0
  -12.8940    1.5650    4.4590 C   0  0  0  0  0  0  0  0  0  0  0  0
  -12.0400    0.8960    4.5140 H   0  0  0  0  0  0  0  0  0  0  0  0
  -13.5240    1.3940    5.3330 H   0  0  0  0  0  0  0  0  0  0  0  0
  -13.6350    1.2600    3.2700 O   0  0  0  0  0  0  0  0  0  0  0  0
  -13.0810    1.4080    2.5000 H   0  0  0  0  0  0  0  0  0  0  0  0
  -13.6300    3.8890    4.3630 O   0  0  0  0  0  0  0  0  0  0  0  0
  -11.7450    7.2980    4.6670 H   0  0  0  0  0  0  0  0  0  0  0  0
  -10.6800    5.2160    6.9580 O   0  0  0  0  0  0  0  0  0  0  0  0
  -10.5110    6.1580    7.0310 H   0  0  0  0  0  0  0  0  0  0  0  0
  -12.2570    7.1450    5.4650 O   0  0  0  0  0  0  0  0  0  0  0  0
  -10.2190    2.7730    5.4370 O   0  0  0  0  0  0  0  0  0  0  0  0
   -9.7200    1.9710    6.5720 C   0  0  2  0  0  0  0  0  0  0  0  0
  -10.1120    2.3870    7.5010 H   0  0  0  0  0  0  0  0  0  0  0  0
   -8.1830    2.0150    6.6440 C   0  0  1  0  0  0  0  0  0  0  0  0
   -7.8690    1.5780    7.5940 H   0  0  0  0  0  0  0  0  0  0  0  0
   -7.5210    1.2580    5.4830 C   0  0  2  0  0  0  0  0  0  0  0  0
   -7.6770    1.8050    4.5510 H   0  0  0  0  0  0  0  0  0  0  0  0
   -8.0680   -0.1740    5.3410 C   0  0  1  0  0  0  0  0  0  0  0  0
   -7.7050   -0.7900    6.1680 H   0  0  0  0  0  0  0  0  0  0  0  0
   -9.6090   -0.2250    5.3250 C   0  0  1  0  0  0  0  0  0  0  0  0
   -9.9590    0.2260    4.3950 H   0  0  0  0  0  0  0  0  0  0  0  0
  -10.1680   -1.6490    5.4310 C   0  0  0  0  0  0  0  0  0  0  0  0
   -9.7820   -2.2630    4.6220 H   0  0  0  0  0  0  0  0  0  0  0  0
   -9.8830   -2.1060    6.3790 H   0  0  0  0  0  0  0  0  0  0  0  0
  -11.5970   -1.6080    5.3300 O   0  0  0  0  0  0  0  0  0  0  0  0
  -11.8480   -1.2070    4.4940 H   0  0  0  0  0  0  0  0  0  0  0  0
  -10.1470    0.5610    6.4660 O   0  0  0  0  0  0  0  0  0  0  0  0
   -8.0590    3.7950    5.7910 H   0  0  0  0  0  0  0  0  0  0  0  0
   -6.1090    1.1650    5.7450 O   0  0  0  0  0  0  0  0  0  0  0  0
   -5.7430    2.0480    5.8380 H   0  0  0  0  0  0  0  0  0  0  0  0
   -7.7630    3.3910    6.6100 O   0  0  0  0  0  0  0  0  0  0  0  0
   -7.5730   -0.6910    4.0490 O   0  0  0  0  0  0  0  0  0  0  0  0
   -6.6190   -1.8170    4.0970 C   0  0  2  0  0  0  0  0  0  0  0  0
   -6.0590   -1.7690    5.0320 H   0  0  0  0  0  0  0  0  0  0  0  0
   -5.6120   -1.7320    2.9370 C   0  0  1  0  0  0  0  0  0  0  0  0
   -4.8190   -2.4610    3.1120 H   0  0  0  0  0  0  0  0  0  0  0  0
   -6.2680   -2.0000    1.5750 C   0  0  2  0  0  0  0  0  0  0  0  0
   -6.9280   -1.1700    1.3130 H   0  0  0  0  0  0  0  0  0  0  0  0
   -7.0670   -3.3160    1.5710 C   0  0  1  0  0  0  0  0  0  0  0  0
   -6.3780   -4.1650    1.5990 H   0  0  0  0  0  0  0  0  0  0  0  0
   -8.0350   -3.4330    2.7650 C   0  0  1  0  0  0  0  0  0  0  0  0
   -8.8380   -2.7050    2.6340 H   0  0  0  0  0  0  0  0  0  0  0  0
   -8.6460   -4.8330    2.9040 C   0  0  0  0  0  0  0  0  0  0  0  0
   -9.1630   -5.1110    1.9890 H   0  0  0  0  0  0  0  0  0  0  0  0
   -7.8710   -5.5750    3.1020 H   0  0  0  0  0  0  0  0  0  0  0  0
   -9.5920   -4.8340    3.9810 O   0  0  0  0  0  0  0  0  0  0  0  0
  -10.2760   -4.1830    3.8070 H   0  0  0  0  0  0  0  0  0  0  0  0
   -7.3130   -3.1190    4.0270 O   0  0  0  0  0  0  0  0  0  0  0  0
   -5.7240    0.2390    2.8060 H   0  0  0  0  0  0  0  0  0  0  0  0
   -5.2310   -2.1090    0.5830 O   0  0  0  0  0  0  0  0  0  0  0  0
   -4.7170   -1.2990    0.5690 H   0  0  0  0  0  0  0  0  0  0  0  0
   -5.0320   -0.4150    2.9300 O   0  0  0  0  0  0  0  0  0  0  0  0
   -7.8660   -3.3370    0.3300 O   0  0  0  0  0  0  0  0  0  0  0  0
   -7.4160   -4.2650   -0.7270 C   0  0  2  0  0  0  0  0  0  0  0  0
   -6.3340   -4.3840   -0.6560 H   0  0  0  0  0  0  0  0  0  0  0  0
   -7.7340   -3.7050   -2.1250 C   0  0  1  0  0  0  0  0  0  0  0  0
   -7.2000   -4.3060   -2.8640 H   0  0  0  0  0  0  0  0  0  0  0  0
   -9.2380   -3.7200   -2.4450 C   0  0  2  0  0  0  0  0  0  0  0  0
   -9.7540   -2.9720   -1.8390 H   0  0  0  0  0  0  0  0  0  0  0  0
   -9.8480   -5.1130   -2.2010 C   0  0  1  0  0  0  0  0  0  0  0  0
   -9.4960   -5.8120   -2.9630 H   0  0  0  0  0  0  0  0  0  0  0  0
   -9.5150   -5.6720   -0.8020 C   0  0  1  0  0  0  0  0  0  0  0  0
  -10.0110   -5.0510   -0.0530 H   0  0  0  0  0  0  0  0  0  0  0  0
   -9.9450   -7.1320   -0.6040 C   0  0  0  0  0  0  0  0  0  0  0  0
  -11.0100   -7.2470   -0.8070 H   0  0  0  0  0  0  0  0  0  0  0  0
   -9.3920   -7.7910   -1.2740 H   0  0  0  0  0  0  0  0  0  0  0  0
   -9.6920   -7.5130    0.7550 O   0  0  0  0  0  0  0  0  0  0  0  0
  -10.1820   -6.9370    1.3460 H   0  0  0  0  0  0  0  0  0  0  0  0
   -8.0470   -5.5930   -0.5830 O   0  0  0  0  0  0  0  0  0  0  0  0
  -11.2780   -4.9900   -2.2950 O   0  0  0  0  0  0  0  0  0  0  0  0
  -11.5120   -4.6440   -3.1600 H   0  0  0  0  0  0  0  0  0  0  0  0
   -9.4010   -3.4000   -3.8390 O   0  0  0  0  0  0  0  0  0  0  0  0
   -9.0120   -2.5410   -4.0170 H   0  0  0  0  0  0  0  0  0  0  0  0
   -7.2500   -2.3520   -2.2000 O   0  0  0  0  0  0  0  0  0  0  0  0
   -7.6880   -1.8180   -1.5330 H   0  0  0  0  0  0  0  0  0  0  0  0
  2  1  1  0  0  0  0
  3  4  1  6  0  0  0
  3 18  1  0  0  0  0
  3  2  1  0  0  0  0
  5  6  1  6  0  0  0
  5  7  1  0  0  0  0
  5  3  1  0  0  0  0
  7  8  1  1  0  0  0
  7  9  1  0  0  0  0
  9 10  1  6  0  0  0
  9 23  1  0  0  0  0
  9 11  1  0  0  0  0
 11 13  1  0  0  0  0
 11 12  1  1  0  0  0
 13 14  1  0  0  0  0
 13 16  1  0  0  0  0
 15 13  1  0  0  0  0
 16 17  1  0  0  0  0
 18 11  1  0  0  0  0
 20  7  1  0  0  0  0
 21 20  1  0  0  0  0
 22 19  1  0  0  0  0
 22  5  1  0  0  0  0
 24 25  1  6  0  0  0
 24 26  1  0  0  0  0
 24 39  1  0  0  0  0
 24 23  1  0  0  0  0
 26 27  1  6  0  0  0
 26 28  1  0  0  0  0
 28 30  1  0  0  0  0
 28 29  1  1  0  0  0
 30 31  1  6  0  0  0
 30 44  1  0  0  0  0
 32 30  1  0  0  0  0
 32 34  1  0  0  0  0
 32 33  1  1  0  0  0
 34 37  1  0  0  0  0
 34 35  1  0  0  0  0
 36 34  1  0  0  0  0
 37 38  1  0  0  0  0
 39 32  1  0  0  0  0
 41 28  1  0  0  0  0
 42 41  1  0  0  0  0
 43 26  1  0  0  0  0
 43 40  1  0  0  0  0
 44 45  1  0  0  0  0
 45 46  1  6  0  0  0
 45 60  1  0  0  0  0
 45 47  1  0  0  0  0
 47 48  1  1  0  0  0
 47 49  1  0  0  0  0
 49 50  1  1  0  0  0
 49 51  1  0  0  0  0
 49 62  1  0  0  0  0
 51 52  1  1  0  0  0
 51 65  1  0  0  0  0
 53 54  1  6  0  0  0
 53 55  1  0  0  0  0
 53 51  1  0  0  0  0
 55 57  1  0  0  0  0
 55 56  1  0  0  0  0
 58 55  1  0  0  0  0
 59 58  1  0  0  0  0
 60 53  1  0  0  0  0
 61 64  1  0  0  0  0
 63 62  1  0  0  0  0
 64 47  1  0  0  0  0
 65 66  1  0  0  0  0
 66 81  1  0  0  0  0
 66 67  1  1  0  0  0
 66 68  1  0  0  0  0
 68 70  1  0  0  0  0
 68 69  1  1  0  0  0
 70 71  1  6  0  0  0
 70 83  1  0  0  0  0
 72 70  1  0  0  0  0
 72 73  1  1  0  0  0
 74 75  1  6  0  0  0
 74 76  1  0  0  0  0
 74 72  1  0  0  0  0
 76 77  1  0  0  0  0
 76 78  1  0  0  0  0
 79 76  1  0  0  0  0
 80 79  1  0  0  0  0
 81 74  1  0  0  0  0
 82 85  1  0  0  0  0
 83 84  1  0  0  0  0
 85 68  1  0  0  0  0
 86 72  1  0  0  0  0
 86 87  1  0  0  0  0
 87 89  1  0  0  0  0
 87 88  1  1  0  0  0
 89 90  1  1  0  0  0
 91 92  1  6  0  0  0
 91104  1  0  0  0  0
 91 89  1  0  0  0  0
 93 91  1  0  0  0  0
 93 94  1  1  0  0  0
 95 96  1  6  0  0  0
 95 93  1  0  0  0  0
 95 97  1  0  0  0  0
 95102  1  0  0  0  0
 97 99  1  0  0  0  0
 98 97  1  0  0  0  0
100 97  1  0  0  0  0
101100  1  0  0  0  0
102 87  1  0  0  0  0
103106  1  0  0  0  0
104105  1  0  0  0  0
106 89  1  0  0  0  0
107108  1  0  0  0  0
107 93  1  0  0  0  0
108109  1  1  0  0  0
110111  1  1  0  0  0
110108  1  0  0  0  0
112113  1  6  0  0  0
112110  1  0  0  0  0
114112  1  0  0  0  0
114115  1  1  0  0  0
114116  1  0  0  0  0
116117  1  6  0  0  0
116118  1  0  0  0  0
116123  1  0  0  0  0
118120  1  0  0  0  0
118121  1  0  0  0  0
119118  1  0  0  0  0
122121  1  0  0  0  0
123108  1  0  0  0  0
124127  1  0  0  0  0
125112  1  0  0  0  0
126125  1  0  0  0  0
127110  1  0  0  0  0
128114  1  0  0  0  0
129130  1  1  0  0  0
129144  1  0  0  0  0
129128  1  0  0  0  0
131132  1  6  0  0  0
131129  1  0  0  0  0
133135  1  0  0  0  0
133131  1  0  0  0  0
133134  1  1  0  0  0
135136  1  6  0  0  0
135137  1  0  0  0  0
137139  1  0  0  0  0
137144  1  0  0  0  0
137138  1  1  0  0  0
139142  1  0  0  0  0
140139  1  0  0  0  0
141139  1  0  0  0  0
142143  1  0  0  0  0
145135  1  0  0  0  0
146145  1  0  0  0  0
147133  1  0  0  0  0
148147  1  0  0  0  0
149131  1  0  0  0  0
149150  1  0  0  0  0
M  END
$$$$
C:\Users\eirik\OneDrive - Norwegian University of Life Sciences\Documents\Masteroppgave\glycam\amylose\pdb\DGlcpa1-4DGlcpa1-4DGlcpa1-4DGlcpa1-4DGlcpa1-4DGlcpa1-4DGlcpa1-4DGlcpa1-OH_structure_min-gas.pdb DGlcpa1-4DGlcpa1-4DGlcpa1-4DGlcpa1-4DGlcpa1-4DGlcpa1-4DGlcpa1-4DGlcpa1-OH_structure_min-gas.pdb
 OpenBabel01122616233D

171178  0  0  1  0  0  0  0  0999 V2000
   -3.5110    9.8030   -1.8680 H   0  0  0  0  0  0  0  0  0  0  0  0
   -3.9850   10.0250   -2.6730 O   0  0  0  0  0  0  0  0  0  0  0  0
   -4.0200    8.8740   -3.5390 C   0  0  2  0  0  0  0  0  0  0  0  0
   -2.9950    8.5930   -3.7800 H   0  0  0  0  0  0  0  0  0  0  0  0
   -4.7830    9.1790   -4.8430 C   0  0  1  0  0  0  0  0  0  0  0  0
   -4.6360    8.3360   -5.5210 H   0  0  0  0  0  0  0  0  0  0  0  0
   -6.2900    9.3820   -4.6170 C   0  0  2  0  0  0  0  0  0  0  0  0
   -6.4620   10.3110   -4.0710 H   0  0  0  0  0  0  0  0  0  0  0  0
   -6.9070    8.1990   -3.8440 C   0  0  1  0  0  0  0  0  0  0  0  0
   -6.9200    7.3110   -4.4810 H   0  0  0  0  0  0  0  0  0  0  0  0
   -6.1260    7.8580   -2.5570 C   0  0  1  0  0  0  0  0  0  0  0  0
   -6.2530    8.6750   -1.8430 H   0  0  0  0  0  0  0  0  0  0  0  0
   -6.5730    6.5470   -1.9000 C   0  0  0  0  0  0  0  0  0  0  0  0
   -7.6360    6.5780   -1.6770 H   0  0  0  0  0  0  0  0  0  0  0  0
   -6.3840    5.6990   -2.5590 H   0  0  0  0  0  0  0  0  0  0  0  0
   -5.8550    6.3680   -0.6720 O   0  0  0  0  0  0  0  0  0  0  0  0
   -6.0310    7.1090   -0.0870 H   0  0  0  0  0  0  0  0  0  0  0  0
   -4.6790    7.7300   -2.8750 O   0  0  0  0  0  0  0  0  0  0  0  0
   -4.3120   11.1000   -4.8690 H   0  0  0  0  0  0  0  0  0  0  0  0
   -6.9350    9.4610   -5.9000 O   0  0  0  0  0  0  0  0  0  0  0  0
   -6.5610   10.1890   -6.4010 H   0  0  0  0  0  0  0  0  0  0  0  0
   -4.2150   10.3500   -5.4600 O   0  0  0  0  0  0  0  0  0  0  0  0
   -8.2830    8.5790   -3.4640 O   0  0  0  0  0  0  0  0  0  0  0  0
   -9.3670    8.0050   -4.2890 C   0  0  2  0  0  0  0  0  0  0  0  0
   -9.0200    7.9240   -5.3200 H   0  0  0  0  0  0  0  0  0  0  0  0
  -10.6140    8.9070   -4.2850 C   0  0  1  0  0  0  0  0  0  0  0  0
  -11.2870    8.5640   -5.0740 H   0  0  0  0  0  0  0  0  0  0  0  0
  -11.3540    8.8920   -2.9390 C   0  0  2  0  0  0  0  0  0  0  0  0
  -10.7600    9.4160   -2.1880 H   0  0  0  0  0  0  0  0  0  0  0  0
  -11.6510    7.4610   -2.4560 C   0  0  1  0  0  0  0  0  0  0  0  0
  -12.4190    7.0070   -3.0870 H   0  0  0  0  0  0  0  0  0  0  0  0
  -10.3970    6.5660   -2.4830 C   0  0  1  0  0  0  0  0  0  0  0  0
   -9.7020    6.9350   -1.7270 H   0  0  0  0  0  0  0  0  0  0  0  0
  -10.6850    5.0850   -2.2140 C   0  0  0  0  0  0  0  0  0  0  0  0
  -11.1950    4.9650   -1.2630 H   0  0  0  0  0  0  0  0  0  0  0  0
  -11.3140    4.6640   -2.9990 H   0  0  0  0  0  0  0  0  0  0  0  0
   -9.4440    4.3680   -2.1580 O   0  0  0  0  0  0  0  0  0  0  0  0
   -8.8910    4.7370   -1.4660 H   0  0  0  0  0  0  0  0  0  0  0  0
   -9.7490    6.6600   -3.8160 O   0  0  0  0  0  0  0  0  0  0  0  0
   -9.5930   10.5590   -3.9130 H   0  0  0  0  0  0  0  0  0  0  0  0
  -12.6120    9.5710   -3.1030 O   0  0  0  0  0  0  0  0  0  0  0  0
  -12.4540   10.4680   -3.4050 H   0  0  0  0  0  0  0  0  0  0  0  0
  -10.2070   10.2540   -4.5850 O   0  0  0  0  0  0  0  0  0  0  0  0
  -12.1160    7.5650   -1.0580 O   0  0  0  0  0  0  0  0  0  0  0  0
  -13.5400    7.2650   -0.8070 C   0  0  2  0  0  0  0  0  0  0  0  0
  -14.1210    7.5360   -1.6900 H   0  0  0  0  0  0  0  0  0  0  0  0
  -14.0760    8.0820    0.3810 C   0  0  1  0  0  0  0  0  0  0  0  0
  -15.1620    7.9760    0.4130 H   0  0  0  0  0  0  0  0  0  0  0  0
  -13.4740    7.6300    1.7200 C   0  0  2  0  0  0  0  0  0  0  0  0
  -12.4200    7.9130    1.7620 H   0  0  0  0  0  0  0  0  0  0  0  0
  -13.6100    6.1120    1.9350 C   0  0  1  0  0  0  0  0  0  0  0  0
  -14.6530    5.8600    2.1450 H   0  0  0  0  0  0  0  0  0  0  0  0
  -13.1380    5.2900    0.7190 C   0  0  1  0  0  0  0  0  0  0  0  0
  -12.0530    5.3840    0.6450 H   0  0  0  0  0  0  0  0  0  0  0  0
  -13.5060    3.8050    0.8080 C   0  0  0  0  0  0  0  0  0  0  0  0
  -13.1060    3.3720    1.7200 H   0  0  0  0  0  0  0  0  0  0  0  0
  -14.5880    3.6730    0.8090 H   0  0  0  0  0  0  0  0  0  0  0  0
  -12.9420    3.1090   -0.3120 O   0  0  0  0  0  0  0  0  0  0  0  0
  -11.9880    3.2230   -0.3130 H   0  0  0  0  0  0  0  0  0  0  0  0
  -13.7480    5.8310   -0.5240 O   0  0  0  0  0  0  0  0  0  0  0  0
  -12.8020    9.5700    0.1040 H   0  0  0  0  0  0  0  0  0  0  0  0
  -14.1810    8.2900    2.7850 O   0  0  0  0  0  0  0  0  0  0  0  0
  -14.1120    9.2410    2.6730 H   0  0  0  0  0  0  0  0  0  0  0  0
  -13.7550    9.4680    0.1640 O   0  0  0  0  0  0  0  0  0  0  0  0
  -12.7480    5.7680    3.0830 O   0  0  0  0  0  0  0  0  0  0  0  0
  -13.4200    5.3420    4.3260 C   0  0  2  0  0  0  0  0  0  0  0  0
  -14.3930    5.8320    4.3900 H   0  0  0  0  0  0  0  0  0  0  0  0
  -12.6000    5.7520    5.5610 C   0  0  1  0  0  0  0  0  0  0  0  0
  -13.2080    5.5870    6.4530 H   0  0  0  0  0  0  0  0  0  0  0  0
  -11.2880    4.9620    5.6780 C   0  0  2  0  0  0  0  0  0  0  0  0
  -10.6030    5.2710    4.8860 H   0  0  0  0  0  0  0  0  0  0  0  0
  -11.5190    3.4420    5.5980 C   0  0  1  0  0  0  0  0  0  0  0  0
  -11.9940    3.0930    6.5190 H   0  0  0  0  0  0  0  0  0  0  0  0
  -12.4010    3.0300    4.4020 C   0  0  1  0  0  0  0  0  0  0  0  0
  -11.8330    3.1910    3.4840 H   0  0  0  0  0  0  0  0  0  0  0  0
  -12.8530    1.5670    4.4600 C   0  0  0  0  0  0  0  0  0  0  0  0
  -11.9900    0.9100    4.5180 H   0  0  0  0  0  0  0  0  0  0  0  0
  -13.4810    1.3900    5.3340 H   0  0  0  0  0  0  0  0  0  0  0  0
  -13.5890    1.2480    3.2720 O   0  0  0  0  0  0  0  0  0  0  0  0
  -13.0370    1.4020    2.5020 H   0  0  0  0  0  0  0  0  0  0  0  0
  -13.6210    3.8800    4.3590 O   0  0  0  0  0  0  0  0  0  0  0  0
  -11.7880    7.3180    4.6670 H   0  0  0  0  0  0  0  0  0  0  0  0
  -10.6930    5.2500    6.9550 O   0  0  0  0  0  0  0  0  0  0  0  0
  -10.5380    6.1950    7.0300 H   0  0  0  0  0  0  0  0  0  0  0  0
  -12.2980    7.1560    5.4640 O   0  0  0  0  0  0  0  0  0  0  0  0
  -10.1920    2.8190    5.4260 O   0  0  0  0  0  0  0  0  0  0  0  0
   -9.6730    2.0270    6.5600 C   0  0  2  0  0  0  0  0  0  0  0  0
  -10.0660    2.4390    7.4900 H   0  0  0  0  0  0  0  0  0  0  0  0
   -8.1370    2.0970    6.6230 C   0  0  1  0  0  0  0  0  0  0  0  0
   -7.8090    1.6670    7.5710 H   0  0  0  0  0  0  0  0  0  0  0  0
   -7.4690    1.3500    5.4590 C   0  0  2  0  0  0  0  0  0  0  0  0
   -7.6410    1.8930    4.5280 H   0  0  0  0  0  0  0  0  0  0  0  0
   -7.9920   -0.0910    5.3220 C   0  0  1  0  0  0  0  0  0  0  0  0
   -7.6140   -0.6990    6.1470 H   0  0  0  0  0  0  0  0  0  0  0  0
   -9.5320   -0.1690    5.3170 C   0  0  1  0  0  0  0  0  0  0  0  0
   -9.8970    0.2740    4.3880 H   0  0  0  0  0  0  0  0  0  0  0  0
  -10.0660   -1.6010    5.4310 C   0  0  0  0  0  0  0  0  0  0  0  0
   -9.6730   -2.2130    4.6230 H   0  0  0  0  0  0  0  0  0  0  0  0
   -9.7690   -2.0500    6.3800 H   0  0  0  0  0  0  0  0  0  0  0  0
  -11.4960   -1.5860    5.3360 O   0  0  0  0  0  0  0  0  0  0  0  0
  -11.7580   -1.1930    4.5000 H   0  0  0  0  0  0  0  0  0  0  0  0
  -10.0770    0.6110    6.4590 O   0  0  0  0  0  0  0  0  0  0  0  0
   -8.0480    3.8790    5.7680 H   0  0  0  0  0  0  0  0  0  0  0  0
   -6.0540    1.2830    5.7110 O   0  0  0  0  0  0  0  0  0  0  0  0
   -5.7030    2.1720    5.8020 H   0  0  0  0  0  0  0  0  0  0  0  0
   -7.7410    3.4800    6.5860 O   0  0  0  0  0  0  0  0  0  0  0  0
   -7.4980   -0.6020    4.0280 O   0  0  0  0  0  0  0  0  0  0  0  0
   -6.4900   -1.6810    4.0760 C   0  0  2  0  0  0  0  0  0  0  0  0
   -5.9040   -1.5780    4.9900 H   0  0  0  0  0  0  0  0  0  0  0  0
   -5.5260   -1.5890    2.8820 C   0  0  1  0  0  0  0  0  0  0  0  0
   -4.6930   -2.2730    3.0550 H   0  0  0  0  0  0  0  0  0  0  0  0
   -6.2090   -1.9350    1.5500 C   0  0  2  0  0  0  0  0  0  0  0  0
   -6.9110   -1.1440    1.2810 H   0  0  0  0  0  0  0  0  0  0  0  0
   -6.9480   -3.2840    1.6130 C   0  0  1  0  0  0  0  0  0  0  0  0
   -6.2210   -4.1000    1.6430 H   0  0  0  0  0  0  0  0  0  0  0  0
   -7.8720   -3.4010    2.8420 C   0  0  1  0  0  0  0  0  0  0  0  0
   -8.7080   -2.7110    2.7120 H   0  0  0  0  0  0  0  0  0  0  0  0
   -8.4210   -4.8170    3.0530 C   0  0  0  0  0  0  0  0  0  0  0  0
   -8.9590   -5.1450    2.1680 H   0  0  0  0  0  0  0  0  0  0  0  0
   -7.6100   -5.5210    3.2460 H   0  0  0  0  0  0  0  0  0  0  0  0
   -9.3270   -4.8170    4.1640 O   0  0  0  0  0  0  0  0  0  0  0  0
  -10.0420   -4.1990    3.9940 H   0  0  0  0  0  0  0  0  0  0  0  0
   -7.1260   -3.0140    4.0690 O   0  0  0  0  0  0  0  0  0  0  0  0
   -5.7370    0.3680    2.6880 H   0  0  0  0  0  0  0  0  0  0  0  0
   -5.1980   -2.0350    0.5310 O   0  0  0  0  0  0  0  0  0  0  0  0
   -4.7210   -1.2040    0.4720 H   0  0  0  0  0  0  0  0  0  0  0  0
   -5.0110   -0.2470    2.8120 O   0  0  0  0  0  0  0  0  0  0  0  0
   -7.7810   -3.3690    0.3970 O   0  0  0  0  0  0  0  0  0  0  0  0
   -7.4280   -4.4130   -0.5870 C   0  0  2  0  0  0  0  0  0  0  0  0
   -6.3600   -4.6210   -0.5170 H   0  0  0  0  0  0  0  0  0  0  0  0
   -7.7260   -3.9370   -2.0190 C   0  0  1  0  0  0  0  0  0  0  0  0
   -7.2850   -4.6490   -2.7190 H   0  0  0  0  0  0  0  0  0  0  0  0
   -9.2330   -3.8130   -2.2900 C   0  0  2  0  0  0  0  0  0  0  0  0
   -9.6420   -2.9740   -1.7240 H   0  0  0  0  0  0  0  0  0  0  0  0
   -9.9910   -5.1020   -1.9240 C   0  0  1  0  0  0  0  0  0  0  0  0
   -9.7510   -5.8880   -2.6460 H   0  0  0  0  0  0  0  0  0  0  0  0
   -9.6500   -5.6180   -0.5110 C   0  0  1  0  0  0  0  0  0  0  0  0
  -10.0630   -4.9220    0.2220 H   0  0  0  0  0  0  0  0  0  0  0  0
  -10.2030   -7.0210   -0.2370 C   0  0  0  0  0  0  0  0  0  0  0  0
  -11.2820   -7.0350   -0.3790 H   0  0  0  0  0  0  0  0  0  0  0  0
   -9.7570   -7.7510   -0.9130 H   0  0  0  0  0  0  0  0  0  0  0  0
   -9.9170   -7.3890    1.1180 O   0  0  0  0  0  0  0  0  0  0  0  0
  -10.3110   -6.7490    1.7150 H   0  0  0  0  0  0  0  0  0  0  0  0
   -8.1730   -5.6640   -0.3390 O   0  0  0  0  0  0  0  0  0  0  0  0
   -7.4640   -2.0260   -1.5830 H   0  0  0  0  0  0  0  0  0  0  0  0
   -9.4240   -3.5720   -3.6960 O   0  0  0  0  0  0  0  0  0  0  0  0
   -8.9580   -2.7730   -3.9490 H   0  0  0  0  0  0  0  0  0  0  0  0
   -7.1050   -2.6540   -2.2140 O   0  0  0  0  0  0  0  0  0  0  0  0
  -11.4320   -4.7850   -1.9600 O   0  0  0  0  0  0  0  0  0  0  0  0
  -12.1970   -5.3270   -3.1000 C   0  0  2  0  0  0  0  0  0  0  0  0
  -11.5350   -5.4110   -3.9630 H   0  0  0  0  0  0  0  0  0  0  0  0
  -13.3540   -4.3880   -3.4860 C   0  0  1  0  0  0  0  0  0  0  0  0
  -13.7490   -4.7110   -4.4510 H   0  0  0  0  0  0  0  0  0  0  0  0
  -14.4860   -4.3770   -2.4460 C   0  0  2  0  0  0  0  0  0  0  0  0
  -14.1500   -3.8730   -1.5370 H   0  0  0  0  0  0  0  0  0  0  0  0
  -14.9560   -5.8060   -2.1170 C   0  0  1  0  0  0  0  0  0  0  0  0
  -15.4980   -6.2250   -2.9670 H   0  0  0  0  0  0  0  0  0  0  0  0
  -13.7900   -6.7450   -1.7420 C   0  0  1  0  0  0  0  0  0  0  0  0
  -13.3590   -6.4040   -0.7980 H   0  0  0  0  0  0  0  0  0  0  0  0
  -14.2050   -8.2150   -1.5970 C   0  0  0  0  0  0  0  0  0  0  0  0
  -15.0120   -8.3140   -0.8710 H   0  0  0  0  0  0  0  0  0  0  0  0
  -14.5500   -8.6140   -2.5520 H   0  0  0  0  0  0  0  0  0  0  0  0
  -13.0790   -8.9770   -1.1410 O   0  0  0  0  0  0  0  0  0  0  0  0
  -12.7780   -8.6300   -0.2980 H   0  0  0  0  0  0  0  0  0  0  0  0
  -12.7440   -6.6660   -2.7940 O   0  0  0  0  0  0  0  0  0  0  0  0
  -15.8390   -5.7280   -0.9840 O   0  0  0  0  0  0  0  0  0  0  0  0
  -16.5750   -5.1490   -1.1920 H   0  0  0  0  0  0  0  0  0  0  0  0
  -15.6000   -3.6590   -3.0070 O   0  0  0  0  0  0  0  0  0  0  0  0
  -15.3240   -2.7680   -3.2360 H   0  0  0  0  0  0  0  0  0  0  0  0
  -12.8320   -3.0540   -3.6300 O   0  0  0  0  0  0  0  0  0  0  0  0
  -12.4510   -2.7680   -2.7960 H   0  0  0  0  0  0  0  0  0  0  0  0
  2  1  1  0  0  0  0
  3  4  1  6  0  0  0
  3 18  1  0  0  0  0
  3  2  1  0  0  0  0
  5  6  1  6  0  0  0
  5  7  1  0  0  0  0
  5  3  1  0  0  0  0
  7  8  1  1  0  0  0
  7  9  1  0  0  0  0
  9 10  1  6  0  0  0
  9 23  1  0  0  0  0
  9 11  1  0  0  0  0
 11 13  1  0  0  0  0
 11 12  1  1  0  0  0
 13 14  1  0  0  0  0
 13 16  1  0  0  0  0
 15 13  1  0  0  0  0
 16 17  1  0  0  0  0
 18 11  1  0  0  0  0
 20  7  1  0  0  0  0
 21 20  1  0  0  0  0
 22 19  1  0  0  0  0
 22  5  1  0  0  0  0
 24 25  1  6  0  0  0
 24 26  1  0  0  0  0
 24 39  1  0  0  0  0
 24 23  1  0  0  0  0
 26 27  1  6  0  0  0
 26 28  1  0  0  0  0
 28 30  1  0  0  0  0
 28 29  1  1  0  0  0
 30 31  1  6  0  0  0
 30 44  1  0  0  0  0
 32 30  1  0  0  0  0
 32 34  1  0  0  0  0
 32 33  1  1  0  0  0
 34 37  1  0  0  0  0
 34 35  1  0  0  0  0
 36 34  1  0  0  0  0
 37 38  1  0  0  0  0
 39 32  1  0  0  0  0
 41 28  1  0  0  0  0
 42 41  1  0  0  0  0
 43 26  1  0  0  0  0
 43 40  1  0  0  0  0
 44 45  1  0  0  0  0
 45 46  1  6  0  0  0
 45 60  1  0  0  0  0
 45 47  1  0  0  0  0
 47 48  1  1  0  0  0
 47 49  1  0  0  0  0
 49 50  1  1  0  0  0
 49 51  1  0  0  0  0
 49 62  1  0  0  0  0
 51 52  1  1  0  0  0
 51 65  1  0  0  0  0
 53 54  1  6  0  0  0
 53 55  1  0  0  0  0
 53 51  1  0  0  0  0
 55 57  1  0  0  0  0
 55 56  1  0  0  0  0
 58 55  1  0  0  0  0
 59 58  1  0  0  0  0
 60 53  1  0  0  0  0
 61 64  1  0  0  0  0
 63 62  1  0  0  0  0
 64 47  1  0  0  0  0
 65 66  1  0  0  0  0
 66 81  1  0  0  0  0
 66 67  1  1  0  0  0
 66 68  1  0  0  0  0
 68 70  1  0  0  0  0
 68 69  1  1  0  0  0
 70 71  1  6  0  0  0
 70 83  1  0  0  0  0
 72 70  1  0  0  0  0
 72 73  1  1  0  0  0
 74 75  1  6  0  0  0
 74 76  1  0  0  0  0
 74 72  1  0  0  0  0
 76 77  1  0  0  0  0
 76 78  1  0  0  0  0
 79 76  1  0  0  0  0
 80 79  1  0  0  0  0
 81 74  1  0  0  0  0
 82 85  1  0  0  0  0
 83 84  1  0  0  0  0
 85 68  1  0  0  0  0
 86 72  1  0  0  0  0
 86 87  1  0  0  0  0
 87 89  1  0  0  0  0
 87 88  1  1  0  0  0
 89 90  1  1  0  0  0
 91 92  1  6  0  0  0
 91104  1  0  0  0  0
 91 89  1  0  0  0  0
 93 91  1  0  0  0  0
 93 94  1  1  0  0  0
 95 96  1  6  0  0  0
 95 93  1  0  0  0  0
 95 97  1  0  0  0  0
 95102  1  0  0  0  0
 97 99  1  0  0  0  0
 98 97  1  0  0  0  0
100 97  1  0  0  0  0
101100  1  0  0  0  0
102 87  1  0  0  0  0
103106  1  0  0  0  0
104105  1  0  0  0  0
106 89  1  0  0  0  0
107108  1  0  0  0  0
107 93  1  0  0  0  0
108109  1  1  0  0  0
110111  1  1  0  0  0
110108  1  0  0  0  0
112113  1  6  0  0  0
112114  1  0  0  0  0
112110  1  0  0  0  0
114115  1  1  0  0  0
114116  1  0  0  0  0
116117  1  6  0  0  0
116118  1  0  0  0  0
116123  1  0  0  0  0
118120  1  0  0  0  0
118121  1  0  0  0  0
119118  1  0  0  0  0
122121  1  0  0  0  0
123108  1  0  0  0  0
124127  1  0  0  0  0
125112  1  0  0  0  0
126125  1  0  0  0  0
127110  1  0  0  0  0
128114  1  0  0  0  0
129130  1  1  0  0  0
129144  1  0  0  0  0
129128  1  0  0  0  0
131132  1  6  0  0  0
131129  1  0  0  0  0
133131  1  0  0  0  0
133135  1  0  0  0  0
133134  1  1  0  0  0
135136  1  6  0  0  0
135137  1  0  0  0  0
137144  1  0  0  0  0
137139  1  0  0  0  0
137138  1  1  0  0  0
139142  1  0  0  0  0
140139  1  0  0  0  0
141139  1  0  0  0  0
142143  1  0  0  0  0
146133  1  0  0  0  0
147146  1  0  0  0  0
148131  1  0  0  0  0
148145  1  0  0  0  0
149135  1  0  0  0  0
150151  1  6  0  0  0
150165  1  0  0  0  0
150149  1  0  0  0  0
152153  1  6  0  0  0
152150  1  0  0  0  0
152154  1  0  0  0  0
154156  1  0  0  0  0
154155  1  1  0  0  0
156157  1  6  0  0  0
156158  1  0  0  0  0
156166  1  0  0  0  0
158160  1  0  0  0  0
158159  1  1  0  0  0
160163  1  0  0  0  0
160161  1  0  0  0  0
162160  1  0  0  0  0
163164  1  0  0  0  0
165158  1  0  0  0  0
167166  1  0  0  0  0
168154  1  0  0  0  0
169168  1  0  0  0  0
170152  1  0  0  0  0
170171  1  0  0  0  0
M  END
$$$$
