C:\Users\eirik\OneDrive - Norwegian University of Life Sciences\Documents\Masteroppgave\glycam\amylose\pdb\DGlcpa1-4DGlcpa1-4DGlcpa1-OH_structure_min-gas.pdb DGlcpa1-4DGlcpa1-4DGlcpa1-OH_structure_min-gas.pdb
 OpenBabel01122616493D

 66 68  0  0  1  0  0  0  0  0999 V2000
   -3.5560    9.8550   -1.8730 H   0  0  0  0  0  0  0  0  0  0  0  0
   -4.0410   10.0340   -2.6820 O   0  0  0  0  0  0  0  0  0  0  0  0
   -4.0450    8.8550   -3.5090 C   0  0  2  0  0  0  0  0  0  0  0  0
   -3.0130    8.5980   -3.7470 H   0  0  0  0  0  0  0  0  0  0  0  0
   -4.8240    9.0910   -4.8180 C   0  0  1  0  0  0  0  0  0  0  0  0
   -4.6540    8.2320   -5.4680 H   0  0  0  0  0  0  0  0  0  0  0  0
   -6.3360    9.2530   -4.5880 C   0  0  2  0  0  0  0  0  0  0  0  0
   -6.5350   10.1940   -4.0720 H   0  0  0  0  0  0  0  0  0  0  0  0
   -6.9080    8.0770   -3.7730 C   0  0  1  0  0  0  0  0  0  0  0  0
   -6.8930    7.1680   -4.3800 H   0  0  0  0  0  0  0  0  0  0  0  0
   -6.1110    7.8070   -2.4790 C   0  0  1  0  0  0  0  0  0  0  0  0
   -6.2610    8.6430   -1.7930 H   0  0  0  0  0  0  0  0  0  0  0  0
   -6.5160    6.5060   -1.7760 C   0  0  0  0  0  0  0  0  0  0  0  0
   -7.5790    6.5120   -1.5490 H   0  0  0  0  0  0  0  0  0  0  0  0
   -6.3020    5.6420   -2.4060 H   0  0  0  0  0  0  0  0  0  0  0  0
   -5.7880    6.3920   -0.5450 O   0  0  0  0  0  0  0  0  0  0  0  0
   -5.9860    7.1460    0.0150 H   0  0  0  0  0  0  0  0  0  0  0  0
   -4.6620    7.7140   -2.8020 O   0  0  0  0  0  0  0  0  0  0  0  0
   -4.4160   11.0250   -4.9090 H   0  0  0  0  0  0  0  0  0  0  0  0
   -6.9910    9.2670   -5.8680 O   0  0  0  0  0  0  0  0  0  0  0  0
   -6.6460    9.9910   -6.3960 H   0  0  0  0  0  0  0  0  0  0  0  0
   -4.2990   10.2590   -5.4760 O   0  0  0  0  0  0  0  0  0  0  0  0
   -8.2940    8.4230   -3.3990 O   0  0  0  0  0  0  0  0  0  0  0  0
   -9.3620    7.7620   -4.1790 C   0  0  2  0  0  0  0  0  0  0  0  0
   -9.0140    7.6220   -5.2030 H   0  0  0  0  0  0  0  0  0  0  0  0
  -10.6340    8.6280   -4.2320 C   0  0  1  0  0  0  0  0  0  0  0  0
  -11.2950    8.2170   -4.9970 H   0  0  0  0  0  0  0  0  0  0  0  0
  -11.3760    8.6790   -2.8880 C   0  0  2  0  0  0  0  0  0  0  0  0
  -10.7980    9.2630   -2.1690 H   0  0  0  0  0  0  0  0  0  0  0  0
  -11.6340    7.2710   -2.3220 C   0  0  1  0  0  0  0  0  0  0  0  0
  -12.3750    6.7530   -2.9360 H   0  0  0  0  0  0  0  0  0  0  0  0
  -10.3520    6.4200   -2.2770 C   0  0  1  0  0  0  0  0  0  0  0  0
   -9.6720    6.8640   -1.5490 H   0  0  0  0  0  0  0  0  0  0  0  0
  -10.5980    4.9540   -1.9000 C   0  0  0  0  0  0  0  0  0  0  0  0
  -11.1010    4.8910   -0.9380 H   0  0  0  0  0  0  0  0  0  0  0  0
  -11.2190    4.4610   -2.6480 H   0  0  0  0  0  0  0  0  0  0  0  0
   -9.3380    4.2770   -1.8020 O   0  0  0  0  0  0  0  0  0  0  0  0
   -8.7930    4.7090   -1.1410 H   0  0  0  0  0  0  0  0  0  0  0  0
   -9.7030    6.4410   -3.6140 O   0  0  0  0  0  0  0  0  0  0  0  0
   -9.6590   10.3290   -3.9670 H   0  0  0  0  0  0  0  0  0  0  0  0
  -12.6500    9.3150   -3.0970 O   0  0  0  0  0  0  0  0  0  0  0  0
  -12.5130   10.1960   -3.4530 H   0  0  0  0  0  0  0  0  0  0  0  0
  -10.2640    9.9640   -4.6180 O   0  0  0  0  0  0  0  0  0  0  0  0
  -12.1280    7.4330   -0.9390 O   0  0  0  0  0  0  0  0  0  0  0  0
  -13.5710    7.1970   -0.7310 C   0  0  2  0  0  0  0  0  0  0  0  0
  -14.1090    7.4800   -1.6360 H   0  0  0  0  0  0  0  0  0  0  0  0
  -14.1140    8.0580    0.4240 C   0  0  1  0  0  0  0  0  0  0  0  0
  -15.2050    8.0250    0.3910 H   0  0  0  0  0  0  0  0  0  0  0  0
  -13.6310    7.5840    1.8050 C   0  0  2  0  0  0  0  0  0  0  0  0
  -12.5660    7.7990    1.9190 H   0  0  0  0  0  0  0  0  0  0  0  0
  -13.8910    6.0790    2.0010 C   0  0  1  0  0  0  0  0  0  0  0  0
  -14.9610    5.8950    2.1100 H   0  0  0  0  0  0  0  0  0  0  0  0
  -13.3400    5.2270    0.8400 C   0  0  1  0  0  0  0  0  0  0  0  0
  -12.2510    5.3030    0.8420 H   0  0  0  0  0  0  0  0  0  0  0  0
  -13.7360    3.7470    0.9120 C   0  0  0  0  0  0  0  0  0  0  0  0
  -13.4290    3.3160    1.8650 H   0  0  0  0  0  0  0  0  0  0  0  0
  -14.8160    3.6310    0.8130 H   0  0  0  0  0  0  0  0  0  0  0  0
  -13.0810    3.0360   -0.1470 O   0  0  0  0  0  0  0  0  0  0  0  0
  -12.1300    3.1330   -0.0570 H   0  0  0  0  0  0  0  0  0  0  0  0
  -13.8490    5.7740   -0.4450 O   0  0  0  0  0  0  0  0  0  0  0  0
  -13.2150    5.6690    3.2040 O   0  0  0  0  0  0  0  0  0  0  0  0
  -13.5410    6.1850    3.9450 H   0  0  0  0  0  0  0  0  0  0  0  0
  -14.3740    8.3000    2.8080 O   0  0  0  0  0  0  0  0  0  0  0  0
  -14.2380    9.2430    2.6940 H   0  0  0  0  0  0  0  0  0  0  0  0
  -13.6930    9.4190    0.2190 O   0  0  0  0  0  0  0  0  0  0  0  0
  -12.7330    9.4590    0.2140 H   0  0  0  0  0  0  0  0  0  0  0  0
  2  1  1  0  0  0  0
  3  4  1  6  0  0  0
  3 18  1  0  0  0  0
  3  2  1  0  0  0  0
  5  6  1  6  0  0  0
  5  7  1  0  0  0  0
  5  3  1  0  0  0  0
  7  8  1  1  0  0  0
  7  9  1  0  0  0  0
  9 10  1  6  0  0  0
  9 23  1  0  0  0  0
  9 11  1  0  0  0  0
 11 12  1  1  0  0  0
 11 13  1  0  0  0  0
 13 14  1  0  0  0  0
 13 16  1  0  0  0  0
 15 13  1  0  0  0  0
 16 17  1  0  0  0  0
 18 11  1  0  0  0  0
 20  7  1  0  0  0  0
 21 20  1  0  0  0  0
 22 19  1  0  0  0  0
 22  5  1  0  0  0  0
 24 25  1  6  0  0  0
 24 39  1  0  0  0  0
 24 23  1  0  0  0  0
 26 27  1  6  0  0  0
 26 24  1  0  0  0  0
 26 28  1  0  0  0  0
 28 30  1  0  0  0  0
 28 29  1  1  0  0  0
 30 31  1  6  0  0  0
 30 32  1  0  0  0  0
 30 44  1  0  0  0  0
 32 34  1  0  0  0  0
 32 33  1  1  0  0  0
 34 37  1  0  0  0  0
 34 35  1  0  0  0  0
 36 34  1  0  0  0  0
 37 38  1  0  0  0  0
 39 32  1  0  0  0  0
 41 28  1  0  0  0  0
 42 41  1  0  0  0  0
 43 26  1  0  0  0  0
 43 40  1  0  0  0  0
 44 45  1  0  0  0  0
 45 46  1  6  0  0  0
 45 60  1  0  0  0  0
 45 47  1  0  0  0  0
 47 48  1  6  0  0  0
 47 49  1  0  0  0  0
 49 50  1  1  0  0  0
 49 51  1  0  0  0  0
 49 63  1  0  0  0  0
 51 52  1  1  0  0  0
 51 61  1  0  0  0  0
 53 54  1  1  0  0  0
 53 55  1  0  0  0  0
 53 51  1  0  0  0  0
 55 56  1  0  0  0  0
 57 55  1  0  0  0  0
 58 59  1  0  0  0  0
 58 55  1  0  0  0  0
 60 53  1  0  0  0  0
 61 62  1  0  0  0  0
 64 63  1  0  0  0  0
 65 47  1  0  0  0  0
 66 65  1  0  0  0  0
M  END
