C:\Users\eirik\OneDrive - Norwegian University of Life Sciences\Documents\Masteroppgave\glycam\amylose\pdb\DGlcpa1-4DGlcpa1-4DGlcpa1-4DGlcpa1-4DGlcpa1-4DGlcpa1-OH_structure_min-gas.pdb DGlcpa1-4DGlcpa1-4DGlcpa1-4DGlcpa1-4DGlcpa1-4DGlcpa1-OH_structure_min-gas.pdb
 OpenBabel01122616503D

129134  0  0  1  0  0  0  0  0999 V2000
   -3.4980    9.8130   -1.8770 H   0  0  0  0  0  0  0  0  0  0  0  0
   -3.9740   10.0370   -2.6800 O   0  0  0  0  0  0  0  0  0  0  0  0
   -4.0140    8.8890   -3.5490 C   0  0  2  0  0  0  0  0  0  0  0  0
   -2.9900    8.6070   -3.7940 H   0  0  0  0  0  0  0  0  0  0  0  0
   -4.7820    9.1980   -4.8490 C   0  0  1  0  0  0  0  0  0  0  0  0
   -4.6390    8.3560   -5.5300 H   0  0  0  0  0  0  0  0  0  0  0  0
   -6.2870    9.4020   -4.6160 C   0  0  2  0  0  0  0  0  0  0  0  0
   -6.4560   10.3300   -4.0670 H   0  0  0  0  0  0  0  0  0  0  0  0
   -6.9030    8.2180   -3.8440 C   0  0  1  0  0  0  0  0  0  0  0  0
   -6.9200    7.3320   -4.4830 H   0  0  0  0  0  0  0  0  0  0  0  0
   -6.1170    7.8730   -2.5610 C   0  0  1  0  0  0  0  0  0  0  0  0
   -6.2400    8.6870   -1.8440 H   0  0  0  0  0  0  0  0  0  0  0  0
   -6.5630    6.5600   -1.9060 C   0  0  0  0  0  0  0  0  0  0  0  0
   -7.6250    6.5920   -1.6780 H   0  0  0  0  0  0  0  0  0  0  0  0
   -6.3760    5.7140   -2.5680 H   0  0  0  0  0  0  0  0  0  0  0  0
   -5.8400    6.3770   -0.6810 O   0  0  0  0  0  0  0  0  0  0  0  0
   -6.0130    7.1160   -0.0930 H   0  0  0  0  0  0  0  0  0  0  0  0
   -4.6710    7.7440   -2.8850 O   0  0  0  0  0  0  0  0  0  0  0  0
   -4.3090   11.1190   -4.8720 H   0  0  0  0  0  0  0  0  0  0  0  0
   -6.9380    9.4850   -5.8960 O   0  0  0  0  0  0  0  0  0  0  0  0
   -6.5650   10.2140   -6.3970 H   0  0  0  0  0  0  0  0  0  0  0  0
   -4.2150   10.3700   -5.4650 O   0  0  0  0  0  0  0  0  0  0  0  0
   -8.2770    8.5990   -3.4570 O   0  0  0  0  0  0  0  0  0  0  0  0
   -9.3650    8.0300   -4.2790 C   0  0  2  0  0  0  0  0  0  0  0  0
   -9.0230    7.9540   -5.3120 H   0  0  0  0  0  0  0  0  0  0  0  0
  -10.6120    8.9330   -4.2650 C   0  0  1  0  0  0  0  0  0  0  0  0
  -11.2880    8.5950   -5.0520 H   0  0  0  0  0  0  0  0  0  0  0  0
  -11.3460    8.9120   -2.9160 C   0  0  2  0  0  0  0  0  0  0  0  0
  -10.7480    9.4320   -2.1640 H   0  0  0  0  0  0  0  0  0  0  0  0
  -11.6410    7.4780   -2.4390 C   0  0  1  0  0  0  0  0  0  0  0  0
  -12.4130    7.0280   -3.0700 H   0  0  0  0  0  0  0  0  0  0  0  0
  -10.3880    6.5820   -2.4760 C   0  0  1  0  0  0  0  0  0  0  0  0
   -9.6900    6.9470   -1.7220 H   0  0  0  0  0  0  0  0  0  0  0  0
  -10.6760    5.1000   -2.2140 C   0  0  0  0  0  0  0  0  0  0  0  0
  -11.1820    4.9760   -1.2600 H   0  0  0  0  0  0  0  0  0  0  0  0
  -11.3090    4.6840   -2.9980 H   0  0  0  0  0  0  0  0  0  0  0  0
   -9.4350    4.3830   -2.1680 O   0  0  0  0  0  0  0  0  0  0  0  0
   -8.8800    4.7470   -1.4750 H   0  0  0  0  0  0  0  0  0  0  0  0
   -9.7460    6.6830   -3.8120 O   0  0  0  0  0  0  0  0  0  0  0  0
   -9.5860   10.5820   -3.8880 H   0  0  0  0  0  0  0  0  0  0  0  0
  -12.6030    9.5930   -3.0700 O   0  0  0  0  0  0  0  0  0  0  0  0
  -12.4450   10.4920   -3.3690 H   0  0  0  0  0  0  0  0  0  0  0  0
  -10.2040   10.2810   -4.5590 O   0  0  0  0  0  0  0  0  0  0  0  0
  -12.1010    7.5740   -1.0390 O   0  0  0  0  0  0  0  0  0  0  0  0
  -13.5280    7.2860   -0.7870 C   0  0  2  0  0  0  0  0  0  0  0  0
  -14.1080    7.5750   -1.6650 H   0  0  0  0  0  0  0  0  0  0  0  0
  -14.0520    8.0910    0.4140 C   0  0  1  0  0  0  0  0  0  0  0  0
  -15.1390    7.9990    0.4440 H   0  0  0  0  0  0  0  0  0  0  0  0
  -13.4570    7.6110    1.7460 C   0  0  2  0  0  0  0  0  0  0  0  0
  -12.3990    7.8790    1.7920 H   0  0  0  0  0  0  0  0  0  0  0  0
  -13.6130    6.0920    1.9370 C   0  0  1  0  0  0  0  0  0  0  0  0
  -14.6600    5.8500    2.1370 H   0  0  0  0  0  0  0  0  0  0  0  0
  -13.1450    5.2850    0.7100 C   0  0  1  0  0  0  0  0  0  0  0  0
  -12.0590    5.3730    0.6390 H   0  0  0  0  0  0  0  0  0  0  0  0
  -13.5220    3.8010    0.7750 C   0  0  0  0  0  0  0  0  0  0  0  0
  -13.1240    3.3510    1.6800 H   0  0  0  0  0  0  0  0  0  0  0  0
  -14.6060    3.6770    0.7750 H   0  0  0  0  0  0  0  0  0  0  0  0
  -12.9640    3.1200   -0.3570 O   0  0  0  0  0  0  0  0  0  0  0  0
  -12.0100    3.2260   -0.3560 H   0  0  0  0  0  0  0  0  0  0  0  0
  -13.7490    5.8500   -0.5250 O   0  0  0  0  0  0  0  0  0  0  0  0
  -12.7590    9.5670    0.1580 H   0  0  0  0  0  0  0  0  0  0  0  0
  -14.1560    8.2640    2.8200 O   0  0  0  0  0  0  0  0  0  0  0  0
  -14.0750    9.2160    2.7230 H   0  0  0  0  0  0  0  0  0  0  0  0
  -13.7130    9.4760    0.2180 O   0  0  0  0  0  0  0  0  0  0  0  0
  -12.7610    5.7180    3.0840 O   0  0  0  0  0  0  0  0  0  0  0  0
  -13.4490    5.2860    4.3170 C   0  0  2  0  0  0  0  0  0  0  0  0
  -14.4130    5.7920    4.3830 H   0  0  0  0  0  0  0  0  0  0  0  0
  -12.6290    5.6610    5.5640 C   0  0  1  0  0  0  0  0  0  0  0  0
  -13.2480    5.4990    6.4480 H   0  0  0  0  0  0  0  0  0  0  0  0
  -11.3360    4.8410    5.6810 C   0  0  2  0  0  0  0  0  0  0  0  0
  -10.6370    5.1450    4.9000 H   0  0  0  0  0  0  0  0  0  0  0  0
  -11.6000    3.3280    5.5790 C   0  0  1  0  0  0  0  0  0  0  0  0
  -12.0950    2.9780    6.4890 H   0  0  0  0  0  0  0  0  0  0  0  0
  -12.4750    2.9540    4.3660 C   0  0  1  0  0  0  0  0  0  0  0  0
  -11.8930    3.1210    3.4580 H   0  0  0  0  0  0  0  0  0  0  0  0
  -12.9530    1.4980    4.3920 C   0  0  0  0  0  0  0  0  0  0  0  0
  -12.1020    0.8240    4.4420 H   0  0  0  0  0  0  0  0  0  0  0  0
  -13.5900    1.3150    5.2580 H   0  0  0  0  0  0  0  0  0  0  0  0
  -13.6860    1.2160    3.1920 O   0  0  0  0  0  0  0  0  0  0  0  0
  -13.1260    1.3740    2.4300 H   0  0  0  0  0  0  0  0  0  0  0  0
  -13.6780    3.8270    4.3250 O   0  0  0  0  0  0  0  0  0  0  0  0
  -11.7750    7.2200    4.6970 H   0  0  0  0  0  0  0  0  0  0  0  0
  -10.7470    5.0990    6.9680 O   0  0  0  0  0  0  0  0  0  0  0  0
  -10.5710    6.0380    7.0570 H   0  0  0  0  0  0  0  0  0  0  0  0
  -12.2960    7.0590    5.4870 O   0  0  0  0  0  0  0  0  0  0  0  0
  -10.2840    2.6770    5.4170 O   0  0  0  0  0  0  0  0  0  0  0  0
   -9.8180    1.8190    6.5250 C   0  0  2  0  0  0  0  0  0  0  0  0
  -10.2460    2.1820    7.4600 H   0  0  0  0  0  0  0  0  0  0  0  0
   -8.2860    1.8730    6.6510 C   0  0  1  0  0  0  0  0  0  0  0  0
   -7.9970    1.3860    7.5840 H   0  0  0  0  0  0  0  0  0  0  0  0
   -7.5780    1.1890    5.4720 C   0  0  2  0  0  0  0  0  0  0  0  0
   -7.7130    1.7840    4.5660 H   0  0  0  0  0  0  0  0  0  0  0  0
   -8.1030   -0.2390    5.2370 C   0  0  1  0  0  0  0  0  0  0  0  0
   -7.7630   -0.8930    6.0440 H   0  0  0  0  0  0  0  0  0  0  0  0
   -9.6410   -0.3070    5.1670 C   0  0  1  0  0  0  0  0  0  0  0  0
   -9.9700    0.1880    4.2510 H   0  0  0  0  0  0  0  0  0  0  0  0
  -10.1780   -1.7440    5.1810 C   0  0  0  0  0  0  0  0  0  0  0  0
   -9.7520   -2.3120    4.3570 H   0  0  0  0  0  0  0  0  0  0  0  0
   -9.9200   -2.2430    6.1150 H   0  0  0  0  0  0  0  0  0  0  0  0
  -11.6030   -1.7210    5.0300 O   0  0  0  0  0  0  0  0  0  0  0  0
  -11.8310   -1.2830    4.2070 H   0  0  0  0  0  0  0  0  0  0  0  0
  -10.2270    0.4130    6.3290 O   0  0  0  0  0  0  0  0  0  0  0  0
   -8.1530    3.7010    5.9050 H   0  0  0  0  0  0  0  0  0  0  0  0
   -6.1740    1.1010    5.7730 O   0  0  0  0  0  0  0  0  0  0  0  0
   -5.8230    1.9810    5.9260 H   0  0  0  0  0  0  0  0  0  0  0  0
   -7.8800    3.2530    6.7090 O   0  0  0  0  0  0  0  0  0  0  0  0
   -7.5650   -0.6920    3.9390 O   0  0  0  0  0  0  0  0  0  0  0  0
   -6.4890   -1.7020    3.9900 C   0  0  2  0  0  0  0  0  0  0  0  0
   -5.9200   -1.5670    4.9100 H   0  0  0  0  0  0  0  0  0  0  0  0
   -5.5170   -1.5340    2.8080 C   0  0  1  0  0  0  0  0  0  0  0  0
   -4.6340   -2.1460    3.0020 H   0  0  0  0  0  0  0  0  0  0  0  0
   -6.1380   -1.9420    1.4620 C   0  0  2  0  0  0  0  0  0  0  0  0
   -6.8960   -1.2130    1.1670 H   0  0  0  0  0  0  0  0  0  0  0  0
   -6.7570   -3.3500    1.5360 C   0  0  1  0  0  0  0  0  0  0  0  0
   -5.9670   -4.1010    1.6030 H   0  0  0  0  0  0  0  0  0  0  0  0
   -7.7220   -3.5140    2.7280 C   0  0  1  0  0  0  0  0  0  0  0  0
   -8.5890   -2.8720    2.5650 H   0  0  0  0  0  0  0  0  0  0  0  0
   -8.2020   -4.9570    2.9380 C   0  0  0  0  0  0  0  0  0  0  0  0
   -8.6650   -5.3400    2.0280 H   0  0  0  0  0  0  0  0  0  0  0  0
   -7.3670   -5.6070    3.2000 H   0  0  0  0  0  0  0  0  0  0  0  0
   -9.1730   -4.9780    3.9930 O   0  0  0  0  0  0  0  0  0  0  0  0
   -9.9110   -4.4100    3.7600 H   0  0  0  0  0  0  0  0  0  0  0  0
   -7.0370   -3.0750    3.9720 O   0  0  0  0  0  0  0  0  0  0  0  0
   -7.5110   -3.5630    0.3290 O   0  0  0  0  0  0  0  0  0  0  0  0
   -6.9310   -3.4670   -0.4300 H   0  0  0  0  0  0  0  0  0  0  0  0
   -5.0890   -1.9670    0.4760 O   0  0  0  0  0  0  0  0  0  0  0  0
   -4.6770   -1.1010    0.4250 H   0  0  0  0  0  0  0  0  0  0  0  0
   -5.1110   -0.1550    2.7410 O   0  0  0  0  0  0  0  0  0  0  0  0
   -5.8820    0.3990    2.6030 H   0  0  0  0  0  0  0  0  0  0  0  0
  2  1  1  0  0  0  0
  3  4  1  6  0  0  0
  3 18  1  0  0  0  0
  3  2  1  0  0  0  0
  5  6  1  6  0  0  0
  5  7  1  0  0  0  0
  5  3  1  0  0  0  0
  7  8  1  1  0  0  0
  7  9  1  0  0  0  0
  9 10  1  6  0  0  0
  9 23  1  0  0  0  0
  9 11  1  0  0  0  0
 11 13  1  0  0  0  0
 11 12  1  1  0  0  0
 13 14  1  0  0  0  0
 13 16  1  0  0  0  0
 15 13  1  0  0  0  0
 16 17  1  0  0  0  0
 18 11  1  0  0  0  0
 20  7  1  0  0  0  0
 21 20  1  0  0  0  0
 22 19  1  0  0  0  0
 22  5  1  0  0  0  0
 24 25  1  6  0  0  0
 24 26  1  0  0  0  0
 24 39  1  0  0  0  0
 24 23  1  0  0  0  0
 26 27  1  6  0  0  0
 26 28  1  0  0  0  0
 28 30  1  0  0  0  0
 28 29  1  1  0  0  0
 30 31  1  6  0  0  0
 30 44  1  0  0  0  0
 32 30  1  0  0  0  0
 32 34  1  0  0  0  0
 32 33  1  1  0  0  0
 34 37  1  0  0  0  0
 34 35  1  0  0  0  0
 36 34  1  0  0  0  0
 37 38  1  0  0  0  0
 39 32  1  0  0  0  0
 41 28  1  0  0  0  0
 42 41  1  0  0  0  0
 43 26  1  0  0  0  0
 43 40  1  0  0  0  0
 44 45  1  0  0  0  0
 45 46  1  6  0  0  0
 45 60  1  0  0  0  0
 45 47  1  0  0  0  0
 47 48  1  1  0  0  0
 47 49  1  0  0  0  0
 49 50  1  1  0  0  0
 49 51  1  0  0  0  0
 49 62  1  0  0  0  0
 51 52  1  1  0  0  0
 51 65  1  0  0  0  0
 53 54  1  6  0  0  0
 53 55  1  0  0  0  0
 53 51  1  0  0  0  0
 55 56  1  0  0  0  0
 57 55  1  0  0  0  0
 58 59  1  0  0  0  0
 58 55  1  0  0  0  0
 60 53  1  0  0  0  0
 61 64  1  0  0  0  0
 63 62  1  0  0  0  0
 64 47  1  0  0  0  0
 65 66  1  0  0  0  0
 66 81  1  0  0  0  0
 66 67  1  1  0  0  0
 66 68  1  0  0  0  0
 68 70  1  0  0  0  0
 68 69  1  1  0  0  0
 70 71  1  6  0  0  0
 70 83  1  0  0  0  0
 72 70  1  0  0  0  0
 72 73  1  1  0  0  0
 74 75  1  6  0  0  0
 74 76  1  0  0  0  0
 74 72  1  0  0  0  0
 76 77  1  0  0  0  0
 76 78  1  0  0  0  0
 79 76  1  0  0  0  0
 80 79  1  0  0  0  0
 81 74  1  0  0  0  0
 82 85  1  0  0  0  0
 83 84  1  0  0  0  0
 85 68  1  0  0  0  0
 86 72  1  0  0  0  0
 86 87  1  0  0  0  0
 87 89  1  0  0  0  0
 87 88  1  1  0  0  0
 89106  1  0  0  0  0
 89 90  1  1  0  0  0
 91 92  1  6  0  0  0
 91104  1  0  0  0  0
 91 89  1  0  0  0  0
 93 91  1  0  0  0  0
 93 94  1  1  0  0  0
 95 96  1  6  0  0  0
 95 97  1  0  0  0  0
 95 93  1  0  0  0  0
 95102  1  0  0  0  0
 97 99  1  0  0  0  0
 98 97  1  0  0  0  0
100 97  1  0  0  0  0
101100  1  0  0  0  0
102 87  1  0  0  0  0
103106  1  0  0  0  0
104105  1  0  0  0  0
107108  1  0  0  0  0
107 93  1  0  0  0  0
108109  1  1  0  0  0
110111  1  1  0  0  0
110108  1  0  0  0  0
112113  1  6  0  0  0
112114  1  0  0  0  0
112110  1  0  0  0  0
114115  1  1  0  0  0
114116  1  0  0  0  0
116117  1  6  0  0  0
116118  1  0  0  0  0
116123  1  0  0  0  0
118120  1  0  0  0  0
118121  1  0  0  0  0
119118  1  0  0  0  0
122121  1  0  0  0  0
123108  1  0  0  0  0
124114  1  0  0  0  0
125124  1  0  0  0  0
126112  1  0  0  0  0
127126  1  0  0  0  0
128110  1  0  0  0  0
129128  1  0  0  0  0
M  END
