C:\Users\eirik\OneDrive - Norwegian University of Life Sciences\Documents\Masteroppgave\glycam\cellulose\pdb\DGlcpb1-4DGlcpb1-4DGlcpb1-4DGlcpb1-4DGlcpb1-OH_structure_min-gas.pdb DGlcpb1-4DGlcpb1-4DGlcpb1-4DGlcpb1-4DGlcpb1-OH_structure_min-gas.pdb
 OpenBabel01122616523D

108112  0  0  1  0  0  0  0  0999 V2000
   -3.7430    9.0130   -1.1960 H   0  0  0  0  0  0  0  0  0  0  0  0
   -4.1800    9.3390   -1.9860 O   0  0  0  0  0  0  0  0  0  0  0  0
   -3.8350   10.7170   -2.1870 C   0  0  2  0  0  0  0  0  0  0  0  0
   -2.7540   10.7960   -2.3050 H   0  0  0  0  0  0  0  0  0  0  0  0
   -4.2480   11.5290   -1.0260 O   0  0  0  0  0  0  0  0  0  0  0  0
   -4.0060   12.9860   -1.1230 C   0  0  2  0  0  0  0  0  0  0  0  0
   -2.9380   13.1560   -1.2780 H   0  0  0  0  0  0  0  0  0  0  0  0
   -4.4280   13.6300    0.2040 C   0  0  0  0  0  0  0  0  0  0  0  0
   -5.4720   13.4050    0.4270 H   0  0  0  0  0  0  0  0  0  0  0  0
   -4.3110   14.7130    0.1570 H   0  0  0  0  0  0  0  0  0  0  0  0
   -3.5940   13.1210    1.2530 O   0  0  0  0  0  0  0  0  0  0  0  0
   -3.6910   12.1680    1.3040 H   0  0  0  0  0  0  0  0  0  0  0  0
   -4.7830   13.5170   -2.3410 C   0  0  2  0  0  0  0  0  0  0  0  0
   -5.8550   13.4190   -2.1490 H   0  0  0  0  0  0  0  0  0  0  0  0
   -4.0150    9.6450   -4.5070 H   0  0  0  0  0  0  0  0  0  0  0  0
   -4.4250   12.7490   -3.6230 C   0  0  2  0  0  0  0  0  0  0  0  0
   -3.4040   12.9990   -3.9190 H   0  0  0  0  0  0  0  0  0  0  0  0
   -5.3310   13.1680   -4.6600 O   0  0  0  0  0  0  0  0  0  0  0  0
   -5.1180   12.7090   -5.4750 H   0  0  0  0  0  0  0  0  0  0  0  0
   -4.5590   11.2250   -3.4490 C   0  0  1  0  0  0  0  0  0  0  0  0
   -5.6140   10.9460   -3.4070 H   0  0  0  0  0  0  0  0  0  0  0  0
   -3.9450   10.5990   -4.5900 O   0  0  0  0  0  0  0  0  0  0  0  0
   -4.4190   14.9340   -2.5410 O   0  0  0  0  0  0  0  0  0  0  0  0
   -5.4880   15.9140   -2.2970 C   0  0  2  0  0  0  0  0  0  0  0  0
   -5.9670   15.6930   -1.3410 H   0  0  0  0  0  0  0  0  0  0  0  0
   -6.5030   15.8730   -3.3690 O   0  0  0  0  0  0  0  0  0  0  0  0
   -7.6120   16.8470   -3.2590 C   0  0  2  0  0  0  0  0  0  0  0  0
   -8.1250   16.6900   -2.3070 H   0  0  0  0  0  0  0  0  0  0  0  0
   -8.5930   16.5830   -4.4070 C   0  0  0  0  0  0  0  0  0  0  0  0
   -8.0900   16.6620   -5.3710 H   0  0  0  0  0  0  0  0  0  0  0  0
   -9.4110   17.3030   -4.3830 H   0  0  0  0  0  0  0  0  0  0  0  0
   -9.1370   15.2640   -4.2590 O   0  0  0  0  0  0  0  0  0  0  0  0
   -8.4240   14.6210   -4.2800 H   0  0  0  0  0  0  0  0  0  0  0  0
   -7.0010   18.2610   -3.2760 C   0  0  2  0  0  0  0  0  0  0  0  0
   -6.5530   18.4410   -4.2560 H   0  0  0  0  0  0  0  0  0  0  0  0
   -3.3830   16.7090   -1.0930 H   0  0  0  0  0  0  0  0  0  0  0  0
   -5.9240   18.4280   -2.1910 C   0  0  2  0  0  0  0  0  0  0  0  0
   -6.3970   18.4310   -1.2070 H   0  0  0  0  0  0  0  0  0  0  0  0
   -5.2730   19.6930   -2.4050 O   0  0  0  0  0  0  0  0  0  0  0  0
   -4.6010   19.8240   -1.7320 H   0  0  0  0  0  0  0  0  0  0  0  0
   -4.8610   17.3170   -2.2570 C   0  0  1  0  0  0  0  0  0  0  0  0
   -4.2270   17.4570   -3.1350 H   0  0  0  0  0  0  0  0  0  0  0  0
   -4.0520   17.3970   -1.0710 O   0  0  0  0  0  0  0  0  0  0  0  0
   -8.0750   19.2380   -3.0090 O   0  0  0  0  0  0  0  0  0  0  0  0
   -8.4560   20.0930   -4.1440 C   0  0  2  0  0  0  0  0  0  0  0  0
   -8.6220   19.4690   -5.0240 H   0  0  0  0  0  0  0  0  0  0  0  0
   -7.4030   21.0840   -4.4420 O   0  0  0  0  0  0  0  0  0  0  0  0
   -7.6870   22.0230   -5.5500 C   0  0  2  0  0  0  0  0  0  0  0  0
   -7.8770   21.4470   -6.4590 H   0  0  0  0  0  0  0  0  0  0  0  0
   -6.4450   22.8970   -5.7630 C   0  0  0  0  0  0  0  0  0  0  0  0
   -6.1870   23.4310   -4.8470 H   0  0  0  0  0  0  0  0  0  0  0  0
   -6.6230   23.6290   -6.5510 H   0  0  0  0  0  0  0  0  0  0  0  0
   -5.3480   22.0600   -6.1520 O   0  0  0  0  0  0  0  0  0  0  0  0
   -5.1820   21.4110   -5.4640 H   0  0  0  0  0  0  0  0  0  0  0  0
   -8.9530   22.8190   -5.1820 C   0  0  2  0  0  0  0  0  0  0  0  0
   -8.7340   23.4540   -4.3200 H   0  0  0  0  0  0  0  0  0  0  0  0
  -10.5860   19.2020   -3.0550 H   0  0  0  0  0  0  0  0  0  0  0  0
  -10.1300   21.8910   -4.8380 C   0  0  2  0  0  0  0  0  0  0  0  0
  -10.4760   21.3930   -5.7470 H   0  0  0  0  0  0  0  0  0  0  0  0
  -11.1940   22.7020   -4.3110 O   0  0  0  0  0  0  0  0  0  0  0  0
  -11.9460   22.1440   -4.0980 H   0  0  0  0  0  0  0  0  0  0  0  0
   -9.7500   20.8400   -3.7800 C   0  0  1  0  0  0  0  0  0  0  0  0
   -9.6330   21.3150   -2.8040 H   0  0  0  0  0  0  0  0  0  0  0  0
  -10.8070   19.8670   -3.7110 O   0  0  0  0  0  0  0  0  0  0  0  0
   -9.3430   23.6390   -6.3450 O   0  0  0  0  0  0  0  0  0  0  0  0
   -9.1640   25.0920   -6.1930 C   0  0  2  0  0  0  0  0  0  0  0  0
   -8.1600   25.2930   -5.8170 H   0  0  0  0  0  0  0  0  0  0  0  0
  -10.1560   25.6550   -5.2560 O   0  0  0  0  0  0  0  0  0  0  0  0
  -10.0990   27.1190   -5.0480 C   0  0  2  0  0  0  0  0  0  0  0  0
   -9.1020   27.3840   -4.6880 H   0  0  0  0  0  0  0  0  0  0  0  0
  -11.1310   27.4870   -3.9750 C   0  0  0  0  0  0  0  0  0  0  0  0
  -12.1300   27.1690   -4.2760 H   0  0  0  0  0  0  0  0  0  0  0  0
  -11.1450   28.5650   -3.8130 H   0  0  0  0  0  0  0  0  0  0  0  0
  -10.7750   26.8410   -2.7460 O   0  0  0  0  0  0  0  0  0  0  0  0
  -10.7590   25.8900   -2.8770 H   0  0  0  0  0  0  0  0  0  0  0  0
  -10.3420   27.7970   -6.4080 C   0  0  2  0  0  0  0  0  0  0  0  0
  -11.3660   27.5880   -6.7310 H   0  0  0  0  0  0  0  0  0  0  0  0
   -8.2160   24.4000   -8.4600 H   0  0  0  0  0  0  0  0  0  0  0  0
   -9.3640   27.2890   -7.4800 C   0  0  2  0  0  0  0  0  0  0  0  0
   -8.3590   27.6550   -7.2570 H   0  0  0  0  0  0  0  0  0  0  0  0
   -9.7860   27.8140   -8.7510 O   0  0  0  0  0  0  0  0  0  0  0  0
   -9.1830   27.5160   -9.4360 H   0  0  0  0  0  0  0  0  0  0  0  0
   -9.3510   25.7520   -7.5700 C   0  0  1  0  0  0  0  0  0  0  0  0
  -10.2790   25.3950   -8.0210 H   0  0  0  0  0  0  0  0  0  0  0  0
   -8.2400   25.3580   -8.3930 O   0  0  0  0  0  0  0  0  0  0  0  0
  -10.1360   29.2500   -6.2520 O   0  0  0  0  0  0  0  0  0  0  0  0
  -11.3510   30.0780   -6.3210 C   0  0  2  0  0  0  0  0  0  0  0  0
  -12.1160   29.6480   -5.6730 H   0  0  0  0  0  0  0  0  0  0  0  0
  -11.8670   30.1520   -7.7010 O   0  0  0  0  0  0  0  0  0  0  0  0
  -13.0870   30.9660   -7.8970 C   0  0  2  0  0  0  0  0  0  0  0  0
  -13.8810   30.5600   -7.2670 H   0  0  0  0  0  0  0  0  0  0  0  0
  -13.5020   30.8420   -9.3700 C   0  0  0  0  0  0  0  0  0  0  0  0
  -12.6890   31.1530  -10.0270 H   0  0  0  0  0  0  0  0  0  0  0  0
  -14.3710   31.4670   -9.5750 H   0  0  0  0  0  0  0  0  0  0  0  0
  -13.8390   29.4750   -9.6440 O   0  0  0  0  0  0  0  0  0  0  0  0
  -13.0790   28.9170   -9.4650 H   0  0  0  0  0  0  0  0  0  0  0  0
  -12.7740   32.4100   -7.4550 C   0  0  1  0  0  0  0  0  0  0  0  0
  -12.0840   32.8650   -8.1680 H   0  0  0  0  0  0  0  0  0  0  0  0
  -14.0090   33.1480   -7.4540 O   0  0  0  0  0  0  0  0  0  0  0  0
  -13.8390   34.0540   -7.1850 H   0  0  0  0  0  0  0  0  0  0  0  0
  -12.1820   32.4740   -6.0340 C   0  0  2  0  0  0  0  0  0  0  0  0
  -12.9610   32.2490   -5.3010 H   0  0  0  0  0  0  0  0  0  0  0  0
  -11.6940   33.8090   -5.8120 O   0  0  0  0  0  0  0  0  0  0  0  0
  -11.3220   33.8710   -4.9290 H   0  0  0  0  0  0  0  0  0  0  0  0
  -11.0040   31.4990   -5.8510 C   0  0  1  0  0  0  0  0  0  0  0  0
  -10.1300   31.8590   -6.3980 H   0  0  0  0  0  0  0  0  0  0  0  0
  -10.6910   31.4290   -4.4490 O   0  0  0  0  0  0  0  0  0  0  0  0
   -9.9570   30.8230   -4.3160 H   0  0  0  0  0  0  0  0  0  0  0  0
  2  1  1  0  0  0  0
  3  4  1  6  0  0  0
  3  2  1  0  0  0  0
  3  5  1  0  0  0  0
  6  7  1  6  0  0  0
  6  5  1  0  0  0  0
  6  8  1  0  0  0  0
  8  9  1  0  0  0  0
  8 11  1  0  0  0  0
 10  8  1  0  0  0  0
 11 12  1  0  0  0  0
 13 14  1  1  0  0  0
 13  6  1  0  0  0  0
 16 17  1  6  0  0  0
 16 20  1  0  0  0  0
 16 13  1  0  0  0  0
 18 16  1  0  0  0  0
 19 18  1  0  0  0  0
 20 21  1  1  0  0  0
 20  3  1  0  0  0  0
 22 15  1  0  0  0  0
 22 20  1  0  0  0  0
 23 13  1  0  0  0  0
 23 24  1  0  0  0  0
 24 41  1  0  0  0  0
 24 25  1  1  0  0  0
 26 27  1  0  0  0  0
 26 24  1  0  0  0  0
 27 28  1  1  0  0  0
 29 31  1  0  0  0  0
 29 32  1  0  0  0  0
 29 27  1  0  0  0  0
 30 29  1  0  0  0  0
 33 32  1  0  0  0  0
 34 35  1  6  0  0  0
 34 27  1  0  0  0  0
 34 44  1  0  0  0  0
 34 37  1  0  0  0  0
 36 43  1  0  0  0  0
 37 38  1  1  0  0  0
 39 37  1  0  0  0  0
 39 40  1  0  0  0  0
 41 42  1  6  0  0  0
 41 37  1  0  0  0  0
 41 43  1  0  0  0  0
 45 46  1  6  0  0  0
 45 62  1  0  0  0  0
 45 44  1  0  0  0  0
 47 45  1  0  0  0  0
 48 49  1  6  0  0  0
 48 55  1  0  0  0  0
 48 47  1  0  0  0  0
 50 48  1  0  0  0  0
 50 51  1  0  0  0  0
 52 50  1  0  0  0  0
 53 50  1  0  0  0  0
 53 54  1  0  0  0  0
 55 58  1  0  0  0  0
 55 56  1  1  0  0  0
 58 59  1  6  0  0  0
 58 60  1  0  0  0  0
 58 62  1  0  0  0  0
 60 61  1  0  0  0  0
 62 64  1  0  0  0  0
 62 63  1  1  0  0  0
 64 57  1  0  0  0  0
 65 66  1  0  0  0  0
 65 55  1  0  0  0  0
 66 67  1  1  0  0  0
 66 68  1  0  0  0  0
 68 69  1  0  0  0  0
 69 70  1  1  0  0  0
 69 71  1  0  0  0  0
 71 73  1  0  0  0  0
 71 74  1  0  0  0  0
 72 71  1  0  0  0  0
 75 74  1  0  0  0  0
 76 77  1  6  0  0  0
 76 86  1  0  0  0  0
 76 69  1  0  0  0  0
 78 85  1  0  0  0  0
 79 80  1  1  0  0  0
 79 76  1  0  0  0  0
 81 79  1  0  0  0  0
 82 81  1  0  0  0  0
 83 84  1  6  0  0  0
 83 79  1  0  0  0  0
 83 66  1  0  0  0  0
 85 83  1  0  0  0  0
 87 86  1  0  0  0  0
 87105  1  0  0  0  0
 87 88  1  1  0  0  0
 89 87  1  0  0  0  0
 90 89  1  0  0  0  0
 90 97  1  0  0  0  0
 90 91  1  1  0  0  0
 92 90  1  0  0  0  0
 93 92  1  0  0  0  0
 94 92  1  0  0  0  0
 95 96  1  0  0  0  0
 95 92  1  0  0  0  0
 97 98  1  6  0  0  0
 97 99  1  0  0  0  0
 97101  1  0  0  0  0
 99100  1  0  0  0  0
101105  1  0  0  0  0
101103  1  0  0  0  0
101102  1  1  0  0  0
103104  1  0  0  0  0
105106  1  6  0  0  0
105107  1  0  0  0  0
107108  1  0  0  0  0
M  END
