C:\Users\eirik\OneDrive - Norwegian University of Life Sciences\Documents\Masteroppgave\glycam\cellulose\pdb\DGlcpb1-4DGlcpb1-OH_structure_min-gas.pdb DGlcpb1-4DGlcpb1-OH_structure_min-gas.pdb
 OpenBabel01122616513D

 45 46  0  0  1  0  0  0  0  0999 V2000
   -3.6370    9.2090   -1.2820 H   0  0  0  0  0  0  0  0  0  0  0  0
   -4.0840    9.5290   -2.0690 O   0  0  0  0  0  0  0  0  0  0  0  0
   -3.7850   10.9200   -2.2560 C   0  0  2  0  0  0  0  0  0  0  0  0
   -2.7070   11.0360   -2.3750 H   0  0  0  0  0  0  0  0  0  0  0  0
   -4.2220   11.7050   -1.0850 O   0  0  0  0  0  0  0  0  0  0  0  0
   -4.0310   13.1710   -1.1670 C   0  0  2  0  0  0  0  0  0  0  0  0
   -2.9700   13.3790   -1.3240 H   0  0  0  0  0  0  0  0  0  0  0  0
   -4.4700   13.7860    0.1680 C   0  0  0  0  0  0  0  0  0  0  0  0
   -5.5050   13.5230    0.3910 H   0  0  0  0  0  0  0  0  0  0  0  0
   -4.3890   14.8720    0.1330 H   0  0  0  0  0  0  0  0  0  0  0  0
   -3.6170   13.2940    1.2100 O   0  0  0  0  0  0  0  0  0  0  0  0
   -3.6820   12.3370    1.2500 H   0  0  0  0  0  0  0  0  0  0  0  0
   -4.8290   13.6880   -2.3770 C   0  0  2  0  0  0  0  0  0  0  0  0
   -5.8970   13.5460   -2.1850 H   0  0  0  0  0  0  0  0  0  0  0  0
   -3.9330    9.8680   -4.5880 H   0  0  0  0  0  0  0  0  0  0  0  0
   -4.4460   12.9470   -3.6690 C   0  0  2  0  0  0  0  0  0  0  0  0
   -3.4340   13.2350   -3.9620 H   0  0  0  0  0  0  0  0  0  0  0  0
   -5.3660   13.3460   -4.7000 O   0  0  0  0  0  0  0  0  0  0  0  0
   -5.1390   12.9030   -5.5200 H   0  0  0  0  0  0  0  0  0  0  0  0
   -4.5280   11.4170   -3.5110 C   0  0  1  0  0  0  0  0  0  0  0  0
   -5.5720   11.1020   -3.4710 H   0  0  0  0  0  0  0  0  0  0  0  0
   -3.8940   10.8250   -4.6600 O   0  0  0  0  0  0  0  0  0  0  0  0
   -4.5200   15.1190   -2.5610 O   0  0  0  0  0  0  0  0  0  0  0  0
   -5.6260   16.0530   -2.2960 C   0  0  2  0  0  0  0  0  0  0  0  0
   -6.0940   15.7950   -1.3450 H   0  0  0  0  0  0  0  0  0  0  0  0
   -6.6380   15.9960   -3.3690 O   0  0  0  0  0  0  0  0  0  0  0  0
   -7.7970   16.9040   -3.2230 C   0  0  2  0  0  0  0  0  0  0  0  0
   -8.3030   16.6740   -2.2830 H   0  0  0  0  0  0  0  0  0  0  0  0
   -8.7550   16.6310   -4.3900 C   0  0  0  0  0  0  0  0  0  0  0  0
   -8.2470   16.7630   -5.3460 H   0  0  0  0  0  0  0  0  0  0  0  0
   -9.6060   17.3130   -4.3540 H   0  0  0  0  0  0  0  0  0  0  0  0
   -9.2380   15.2840   -4.2900 O   0  0  0  0  0  0  0  0  0  0  0  0
   -8.4960   14.6760   -4.3220 H   0  0  0  0  0  0  0  0  0  0  0  0
   -7.2680   18.3520   -3.1760 C   0  0  1  0  0  0  0  0  0  0  0  0
   -6.8870   18.6310   -4.1610 H   0  0  0  0  0  0  0  0  0  0  0  0
   -8.3680   19.2130   -2.8330 O   0  0  0  0  0  0  0  0  0  0  0  0
   -8.0640   20.1230   -2.8020 H   0  0  0  0  0  0  0  0  0  0  0  0
   -6.1680   18.5410   -2.1140 C   0  0  2  0  0  0  0  0  0  0  0  0
   -6.6100   18.5000   -1.1160 H   0  0  0  0  0  0  0  0  0  0  0  0
   -5.5690   19.8340   -2.3140 O   0  0  0  0  0  0  0  0  0  0  0  0
   -4.8810   19.9720   -1.6590 H   0  0  0  0  0  0  0  0  0  0  0  0
   -5.0590   17.4790   -2.2320 C   0  0  1  0  0  0  0  0  0  0  0  0
   -4.4500   17.6680   -3.1190 H   0  0  0  0  0  0  0  0  0  0  0  0
   -4.2280   17.5630   -1.0600 O   0  0  0  0  0  0  0  0  0  0  0  0
   -3.5310   16.9060   -1.1160 H   0  0  0  0  0  0  0  0  0  0  0  0
  2  1  1  0  0  0  0
  3  4  1  6  0  0  0
  3  2  1  0  0  0  0
  3  5  1  0  0  0  0
  6  7  1  6  0  0  0
  6  5  1  0  0  0  0
  6  8  1  0  0  0  0
  8  9  1  0  0  0  0
  8 11  1  0  0  0  0
 10  8  1  0  0  0  0
 11 12  1  0  0  0  0
 13 14  1  1  0  0  0
 13  6  1  0  0  0  0
 16 17  1  6  0  0  0
 16 20  1  0  0  0  0
 16 13  1  0  0  0  0
 18 16  1  0  0  0  0
 19 18  1  0  0  0  0
 20 21  1  1  0  0  0
 20  3  1  0  0  0  0
 22 15  1  0  0  0  0
 22 20  1  0  0  0  0
 23 13  1  0  0  0  0
 23 24  1  0  0  0  0
 24 42  1  0  0  0  0
 24 25  1  1  0  0  0
 26 27  1  0  0  0  0
 26 24  1  0  0  0  0
 27 34  1  0  0  0  0
 27 28  1  1  0  0  0
 29 31  1  0  0  0  0
 29 32  1  0  0  0  0
 29 27  1  0  0  0  0
 30 29  1  0  0  0  0
 33 32  1  0  0  0  0
 34 35  1  6  0  0  0
 34 36  1  0  0  0  0
 34 38  1  0  0  0  0
 36 37  1  0  0  0  0
 38 39  1  1  0  0  0
 40 38  1  0  0  0  0
 40 41  1  0  0  0  0
 42 43  1  6  0  0  0
 42 38  1  0  0  0  0
 42 44  1  0  0  0  0
 45 44  1  0  0  0  0
M  END
