C:\Users\eirik\OneDrive - Norwegian University of Life Sciences\Documents\Masteroppgave\glycam\amylose\pdb\DGlcpa1-4DGlcpa1-OH_structure_min-gas.pdb DGlcpa1-4DGlcpa1-OH_structure_min-gas.pdb
 OpenBabel01122616483D

 45 46  0  0  1  0  0  0  0  0999 V2000
   -3.6410    9.5780   -1.6280 H   0  0  0  0  0  0  0  0  0  0  0  0
   -4.0810    9.7870   -2.4550 O   0  0  0  0  0  0  0  0  0  0  0  0
   -4.1280    8.6090   -3.2830 C   0  0  2  0  0  0  0  0  0  0  0  0
   -3.1060    8.2850   -3.4790 H   0  0  0  0  0  0  0  0  0  0  0  0
   -4.8360    8.8960   -4.6220 C   0  0  1  0  0  0  0  0  0  0  0  0
   -4.6950    8.0270   -5.2670 H   0  0  0  0  0  0  0  0  0  0  0  0
   -6.3420    9.1550   -4.4560 C   0  0  2  0  0  0  0  0  0  0  0  0
   -6.5020   10.1060   -3.9450 H   0  0  0  0  0  0  0  0  0  0  0  0
   -7.0230    8.0170   -3.6680 C   0  0  1  0  0  0  0  0  0  0  0  0
   -7.0380    7.1080   -4.2750 H   0  0  0  0  0  0  0  0  0  0  0  0
   -6.3000    7.7010   -2.3430 C   0  0  1  0  0  0  0  0  0  0  0  0
   -6.4230    8.5480   -1.6650 H   0  0  0  0  0  0  0  0  0  0  0  0
   -6.8200    6.4330   -1.6540 C   0  0  0  0  0  0  0  0  0  0  0  0
   -7.8890    6.5120   -1.4700 H   0  0  0  0  0  0  0  0  0  0  0  0
   -6.6390    5.5540   -2.2740 H   0  0  0  0  0  0  0  0  0  0  0  0
   -6.1510    6.2760   -0.3950 O   0  0  0  0  0  0  0  0  0  0  0  0
   -6.3180    7.0450    0.1550 H   0  0  0  0  0  0  0  0  0  0  0  0
   -4.8480    7.5120   -2.6040 O   0  0  0  0  0  0  0  0  0  0  0  0
   -4.3010   10.8000   -4.6940 H   0  0  0  0  0  0  0  0  0  0  0  0
   -6.9390    9.2130   -5.7630 O   0  0  0  0  0  0  0  0  0  0  0  0
   -6.5250    9.9130   -6.2730 H   0  0  0  0  0  0  0  0  0  0  0  0
   -4.2080   10.0270   -5.2560 O   0  0  0  0  0  0  0  0  0  0  0  0
   -8.4000    8.4450   -3.3510 O   0  0  0  0  0  0  0  0  0  0  0  0
   -9.4650    7.8950   -4.2160 C   0  0  2  0  0  0  0  0  0  0  0  0
   -9.0770    7.7920   -5.2290 H   0  0  0  0  0  0  0  0  0  0  0  0
  -10.6790    8.8410   -4.2790 C   0  0  1  0  0  0  0  0  0  0  0  0
  -11.3170    8.5200   -5.1050 H   0  0  0  0  0  0  0  0  0  0  0  0
  -11.5000    8.8580   -2.9780 C   0  0  2  0  0  0  0  0  0  0  0  0
  -10.9380    9.3650   -2.1910 H   0  0  0  0  0  0  0  0  0  0  0  0
  -11.8670    7.4310   -2.5300 C   0  0  1  0  0  0  0  0  0  0  0  0
  -12.6050    7.0020   -3.2120 H   0  0  0  0  0  0  0  0  0  0  0  0
  -10.6370    6.5050   -2.4560 C   0  0  1  0  0  0  0  0  0  0  0  0
   -9.9780    6.8730   -1.6680 H   0  0  0  0  0  0  0  0  0  0  0  0
  -10.9750    5.0350   -2.1750 C   0  0  0  0  0  0  0  0  0  0  0  0
  -11.5620    4.9460   -1.2610 H   0  0  0  0  0  0  0  0  0  0  0  0
  -11.5510    4.6080   -2.9980 H   0  0  0  0  0  0  0  0  0  0  0  0
   -9.7540    4.3010   -2.0140 O   0  0  0  0  0  0  0  0  0  0  0  0
   -9.2500    4.6730   -1.2860 H   0  0  0  0  0  0  0  0  0  0  0  0
   -9.9090    6.5650   -3.7490 O   0  0  0  0  0  0  0  0  0  0  0  0
  -12.4340    7.5150   -1.2100 O   0  0  0  0  0  0  0  0  0  0  0  0
  -13.2060    8.0850   -1.2300 H   0  0  0  0  0  0  0  0  0  0  0  0
  -12.7230    9.5740   -3.2320 O   0  0  0  0  0  0  0  0  0  0  0  0
  -12.5160   10.4640   -3.5260 H   0  0  0  0  0  0  0  0  0  0  0  0
  -10.2100   10.1730   -4.5560 O   0  0  0  0  0  0  0  0  0  0  0  0
   -9.6240   10.4590   -3.8510 H   0  0  0  0  0  0  0  0  0  0  0  0
  2  1  1  0  0  0  0
  3  4  1  6  0  0  0
  3 18  1  0  0  0  0
  3  2  1  0  0  0  0
  5  6  1  6  0  0  0
  5  7  1  0  0  0  0
  5  3  1  0  0  0  0
  7  8  1  1  0  0  0
  7  9  1  0  0  0  0
  9 10  1  6  0  0  0
  9 23  1  0  0  0  0
  9 11  1  0  0  0  0
 11 12  1  1  0  0  0
 11 13  1  0  0  0  0
 13 14  1  0  0  0  0
 13 16  1  0  0  0  0
 15 13  1  0  0  0  0
 16 17  1  0  0  0  0
 18 11  1  0  0  0  0
 20  7  1  0  0  0  0
 21 20  1  0  0  0  0
 22 19  1  0  0  0  0
 22  5  1  0  0  0  0
 24 25  1  6  0  0  0
 24 39  1  0  0  0  0
 24 23  1  0  0  0  0
 26 27  1  6  0  0  0
 26 24  1  0  0  0  0
 26 28  1  0  0  0  0
 28 30  1  0  0  0  0
 28 29  1  1  0  0  0
 30 31  1  6  0  0  0
 30 32  1  0  0  0  0
 30 40  1  0  0  0  0
 32 34  1  0  0  0  0
 32 33  1  1  0  0  0
 34 37  1  0  0  0  0
 34 35  1  0  0  0  0
 36 34  1  0  0  0  0
 37 38  1  0  0  0  0
 39 32  1  0  0  0  0
 41 40  1  0  0  0  0
 42 28  1  0  0  0  0
 43 42  1  0  0  0  0
 44 26  1  0  0  0  0
 44 45  1  0  0  0  0
M  END
