C:\Users\eirik\OneDrive - Norwegian University of Life Sciences\Documents\Masteroppgave\glycam\amylose\pdb\DGlcpa1-4DGlcpa1-4DGlcpa1-4DGlcpa1-4DGlcpa1-OH_structure_min-gas.pdb DGlcpa1-4DGlcpa1-4DGlcpa1-4DGlcpa1-4DGlcpa1-OH_structure_min-gas.pdb
 OpenBabel01122616493D

108112  0  0  1  0  0  0  0  0999 V2000
   -3.5040    9.8310   -1.8770 H   0  0  0  0  0  0  0  0  0  0  0  0
   -3.9820   10.0550   -2.6780 O   0  0  0  0  0  0  0  0  0  0  0  0
   -4.0230    8.9080   -3.5490 C   0  0  2  0  0  0  0  0  0  0  0  0
   -2.9990    8.6290   -3.7980 H   0  0  0  0  0  0  0  0  0  0  0  0
   -4.7940    9.2180   -4.8460 C   0  0  1  0  0  0  0  0  0  0  0  0
   -4.6520    8.3780   -5.5290 H   0  0  0  0  0  0  0  0  0  0  0  0
   -6.3000    9.4180   -4.6090 C   0  0  2  0  0  0  0  0  0  0  0  0
   -6.4700   10.3450   -4.0580 H   0  0  0  0  0  0  0  0  0  0  0  0
   -6.9110    8.2310   -3.8380 C   0  0  1  0  0  0  0  0  0  0  0  0
   -6.9250    7.3460   -4.4790 H   0  0  0  0  0  0  0  0  0  0  0  0
   -6.1210    7.8870   -2.5570 C   0  0  1  0  0  0  0  0  0  0  0  0
   -6.2440    8.7010   -1.8390 H   0  0  0  0  0  0  0  0  0  0  0  0
   -6.5630    6.5730   -1.9010 C   0  0  0  0  0  0  0  0  0  0  0  0
   -7.6240    6.6030   -1.6690 H   0  0  0  0  0  0  0  0  0  0  0  0
   -6.3780    5.7280   -2.5650 H   0  0  0  0  0  0  0  0  0  0  0  0
   -5.8350    6.3900   -0.6790 O   0  0  0  0  0  0  0  0  0  0  0  0
   -6.0070    7.1280   -0.0910 H   0  0  0  0  0  0  0  0  0  0  0  0
   -4.6760    7.7610   -2.8860 O   0  0  0  0  0  0  0  0  0  0  0  0
   -4.3250   11.1400   -4.8660 H   0  0  0  0  0  0  0  0  0  0  0  0
   -6.9540    9.5030   -5.8880 O   0  0  0  0  0  0  0  0  0  0  0  0
   -6.5840   10.2340   -6.3880 H   0  0  0  0  0  0  0  0  0  0  0  0
   -4.2320   10.3930   -5.4620 O   0  0  0  0  0  0  0  0  0  0  0  0
   -8.2860    8.6060   -3.4480 O   0  0  0  0  0  0  0  0  0  0  0  0
   -9.3720    8.0390   -4.2750 C   0  0  2  0  0  0  0  0  0  0  0  0
   -9.0320    7.9760   -5.3090 H   0  0  0  0  0  0  0  0  0  0  0  0
  -10.6240    8.9350   -4.2500 C   0  0  1  0  0  0  0  0  0  0  0  0
  -11.2980    8.6030   -5.0420 H   0  0  0  0  0  0  0  0  0  0  0  0
  -11.3610    8.8920   -2.9020 C   0  0  2  0  0  0  0  0  0  0  0  0
  -10.7670    9.4050   -2.1420 H   0  0  0  0  0  0  0  0  0  0  0  0
  -11.6470    7.4500   -2.4450 C   0  0  1  0  0  0  0  0  0  0  0  0
  -12.4110    7.0020   -3.0860 H   0  0  0  0  0  0  0  0  0  0  0  0
  -10.3860    6.5660   -2.4870 C   0  0  1  0  0  0  0  0  0  0  0  0
   -9.6920    6.9300   -1.7290 H   0  0  0  0  0  0  0  0  0  0  0  0
  -10.6590    5.0790   -2.2390 C   0  0  0  0  0  0  0  0  0  0  0  0
  -11.1630    4.9410   -1.2860 H   0  0  0  0  0  0  0  0  0  0  0  0
  -11.2890    4.6630   -3.0260 H   0  0  0  0  0  0  0  0  0  0  0  0
   -9.4120    4.3730   -2.2000 O   0  0  0  0  0  0  0  0  0  0  0  0
   -8.8600    4.7350   -1.5040 H   0  0  0  0  0  0  0  0  0  0  0  0
   -9.7440    6.6850   -3.8210 O   0  0  0  0  0  0  0  0  0  0  0  0
   -9.6100   10.5850   -3.8500 H   0  0  0  0  0  0  0  0  0  0  0  0
  -12.6220    9.5670   -3.0500 O   0  0  0  0  0  0  0  0  0  0  0  0
  -12.4700   10.4700   -3.3360 H   0  0  0  0  0  0  0  0  0  0  0  0
  -10.2250   10.2900   -4.5250 O   0  0  0  0  0  0  0  0  0  0  0  0
  -12.1160    7.5230   -1.0460 O   0  0  0  0  0  0  0  0  0  0  0  0
  -13.5410    7.2140   -0.8070 C   0  0  2  0  0  0  0  0  0  0  0  0
  -14.1190    7.5070   -1.6850 H   0  0  0  0  0  0  0  0  0  0  0  0
  -14.0830    7.9990    0.3990 C   0  0  1  0  0  0  0  0  0  0  0  0
  -15.1700    7.8950    0.4200 H   0  0  0  0  0  0  0  0  0  0  0  0
  -13.4940    7.5090    1.7310 C   0  0  2  0  0  0  0  0  0  0  0  0
  -12.4400    7.7890    1.7900 H   0  0  0  0  0  0  0  0  0  0  0  0
  -13.6340    5.9860    1.9020 C   0  0  1  0  0  0  0  0  0  0  0  0
  -14.6800    5.7300    2.0890 H   0  0  0  0  0  0  0  0  0  0  0  0
  -13.1440    5.2010    0.6690 C   0  0  1  0  0  0  0  0  0  0  0  0
  -12.0600    5.3050    0.6090 H   0  0  0  0  0  0  0  0  0  0  0  0
  -13.5010    3.7110    0.7140 C   0  0  0  0  0  0  0  0  0  0  0  0
  -13.1000    3.2560    1.6160 H   0  0  0  0  0  0  0  0  0  0  0  0
  -14.5820    3.5710    0.7070 H   0  0  0  0  0  0  0  0  0  0  0  0
  -12.9270    3.0510   -0.4220 O   0  0  0  0  0  0  0  0  0  0  0  0
  -11.9740    3.1720   -0.4150 H   0  0  0  0  0  0  0  0  0  0  0  0
  -13.7460    5.7730   -0.5640 O   0  0  0  0  0  0  0  0  0  0  0  0
  -12.8050    9.4920    0.1740 H   0  0  0  0  0  0  0  0  0  0  0  0
  -14.2100    8.1400    2.8070 O   0  0  0  0  0  0  0  0  0  0  0  0
  -14.1380    9.0940    2.7230 H   0  0  0  0  0  0  0  0  0  0  0  0
  -13.7590    9.3900    0.2230 O   0  0  0  0  0  0  0  0  0  0  0  0
  -12.7890    5.6090    3.0520 O   0  0  0  0  0  0  0  0  0  0  0  0
  -13.4770    5.1110    4.2600 C   0  0  2  0  0  0  0  0  0  0  0  0
  -14.4690    5.5600    4.3150 H   0  0  0  0  0  0  0  0  0  0  0  0
  -12.7050    5.5070    5.5300 C   0  0  1  0  0  0  0  0  0  0  0  0
  -13.3280    5.2880    6.3980 H   0  0  0  0  0  0  0  0  0  0  0  0
  -11.3670    4.7630    5.6540 C   0  0  2  0  0  0  0  0  0  0  0  0
  -10.6730    5.1220    4.8900 H   0  0  0  0  0  0  0  0  0  0  0  0
  -11.5410    3.2400    5.5190 C   0  0  1  0  0  0  0  0  0  0  0  0
  -12.0350    2.8450    6.4110 H   0  0  0  0  0  0  0  0  0  0  0  0
  -12.3700    2.8380    4.2830 C   0  0  1  0  0  0  0  0  0  0  0  0
  -11.7840    3.0530    3.3870 H   0  0  0  0  0  0  0  0  0  0  0  0
  -12.7610    1.3550    4.2810 C   0  0  0  0  0  0  0  0  0  0  0  0
  -11.8720    0.7310    4.3420 H   0  0  0  0  0  0  0  0  0  0  0  0
  -13.4040    1.1230    5.1310 H   0  0  0  0  0  0  0  0  0  0  0  0
  -13.4520    1.0470    3.0630 O   0  0  0  0  0  0  0  0  0  0  0  0
  -12.8860    1.2480    2.3140 H   0  0  0  0  0  0  0  0  0  0  0  0
  -13.6210    3.6410    4.2340 O   0  0  0  0  0  0  0  0  0  0  0  0
  -11.9310    7.1350    4.7130 H   0  0  0  0  0  0  0  0  0  0  0  0
  -10.8140    5.0320    6.9550 O   0  0  0  0  0  0  0  0  0  0  0  0
  -10.6970    5.9780    7.0630 H   0  0  0  0  0  0  0  0  0  0  0  0
  -12.4550    6.9240    5.4900 O   0  0  0  0  0  0  0  0  0  0  0  0
  -10.1920    2.6590    5.3710 O   0  0  0  0  0  0  0  0  0  0  0  0
   -9.6550    1.9350    6.5400 C   0  0  2  0  0  0  0  0  0  0  0  0
  -10.0660    2.3760    7.4490 H   0  0  0  0  0  0  0  0  0  0  0  0
   -8.1220    2.0590    6.6090 C   0  0  1  0  0  0  0  0  0  0  0  0
   -7.7940    1.7030    7.5880 H   0  0  0  0  0  0  0  0  0  0  0  0
   -7.4070    1.2590    5.5080 C   0  0  2  0  0  0  0  0  0  0  0  0
   -7.5750    1.7320    4.5380 H   0  0  0  0  0  0  0  0  0  0  0  0
   -7.8910   -0.2020    5.4750 C   0  0  1  0  0  0  0  0  0  0  0  0
   -7.5210   -0.7370    6.3530 H   0  0  0  0  0  0  0  0  0  0  0  0
   -9.4280   -0.3190    5.4160 C   0  0  1  0  0  0  0  0  0  0  0  0
   -9.7700    0.0750    4.4570 H   0  0  0  0  0  0  0  0  0  0  0  0
   -9.9440   -1.7560    5.5760 C   0  0  0  0  0  0  0  0  0  0  0  0
   -9.4920   -2.4090    4.8290 H   0  0  0  0  0  0  0  0  0  0  0  0
   -9.7020   -2.1450    6.5660 H   0  0  0  0  0  0  0  0  0  0  0  0
  -11.3670   -1.7650    5.3950 O   0  0  0  0  0  0  0  0  0  0  0  0
  -11.5800   -1.4280    4.5220 H   0  0  0  0  0  0  0  0  0  0  0  0
  -10.0210    0.5040    6.5020 O   0  0  0  0  0  0  0  0  0  0  0  0
   -7.3590   -0.8150    4.2880 O   0  0  0  0  0  0  0  0  0  0  0  0
   -6.4000   -0.7570    4.3010 H   0  0  0  0  0  0  0  0  0  0  0  0
   -5.9980    1.2560    5.8000 O   0  0  0  0  0  0  0  0  0  0  0  0
   -5.6780    2.1610    5.8410 H   0  0  0  0  0  0  0  0  0  0  0  0
   -7.7680    3.4490    6.4870 O   0  0  0  0  0  0  0  0  0  0  0  0
   -8.0790    3.7850    5.6430 H   0  0  0  0  0  0  0  0  0  0  0  0
  2  1  1  0  0  0  0
  3  4  1  6  0  0  0
  3 18  1  0  0  0  0
  3  2  1  0  0  0  0
  5  6  1  6  0  0  0
  5  7  1  0  0  0  0
  5  3  1  0  0  0  0
  7  8  1  1  0  0  0
  7  9  1  0  0  0  0
  9 10  1  6  0  0  0
  9 23  1  0  0  0  0
  9 11  1  0  0  0  0
 11 13  1  0  0  0  0
 11 12  1  1  0  0  0
 13 14  1  0  0  0  0
 13 16  1  0  0  0  0
 15 13  1  0  0  0  0
 16 17  1  0  0  0  0
 18 11  1  0  0  0  0
 20  7  1  0  0  0  0
 21 20  1  0  0  0  0
 22 19  1  0  0  0  0
 22  5  1  0  0  0  0
 24 25  1  6  0  0  0
 24 26  1  0  0  0  0
 24 39  1  0  0  0  0
 24 23  1  0  0  0  0
 26 27  1  6  0  0  0
 26 28  1  0  0  0  0
 28 30  1  0  0  0  0
 28 29  1  1  0  0  0
 30 31  1  6  0  0  0
 30 44  1  0  0  0  0
 32 30  1  0  0  0  0
 32 34  1  0  0  0  0
 32 33  1  1  0  0  0
 34 37  1  0  0  0  0
 34 35  1  0  0  0  0
 36 34  1  0  0  0  0
 37 38  1  0  0  0  0
 39 32  1  0  0  0  0
 41 28  1  0  0  0  0
 42 41  1  0  0  0  0
 43 26  1  0  0  0  0
 43 40  1  0  0  0  0
 44 45  1  0  0  0  0
 45 46  1  6  0  0  0
 45 60  1  0  0  0  0
 45 47  1  0  0  0  0
 47 48  1  1  0  0  0
 47 49  1  0  0  0  0
 49 50  1  1  0  0  0
 49 51  1  0  0  0  0
 49 62  1  0  0  0  0
 51 52  1  1  0  0  0
 51 65  1  0  0  0  0
 53 54  1  6  0  0  0
 53 55  1  0  0  0  0
 53 51  1  0  0  0  0
 55 56  1  0  0  0  0
 57 55  1  0  0  0  0
 58 59  1  0  0  0  0
 58 55  1  0  0  0  0
 60 53  1  0  0  0  0
 61 64  1  0  0  0  0
 63 62  1  0  0  0  0
 64 47  1  0  0  0  0
 65 66  1  0  0  0  0
 66 67  1  1  0  0  0
 66 68  1  0  0  0  0
 68 70  1  0  0  0  0
 68 69  1  1  0  0  0
 70 71  1  6  0  0  0
 70 83  1  0  0  0  0
 72 70  1  0  0  0  0
 72 73  1  1  0  0  0
 74 75  1  6  0  0  0
 74 72  1  0  0  0  0
 76 74  1  0  0  0  0
 76 77  1  0  0  0  0
 76 78  1  0  0  0  0
 79 76  1  0  0  0  0
 80 79  1  0  0  0  0
 81 66  1  0  0  0  0
 81 74  1  0  0  0  0
 82 85  1  0  0  0  0
 83 84  1  0  0  0  0
 85 68  1  0  0  0  0
 86 72  1  0  0  0  0
 86 87  1  0  0  0  0
 87 89  1  0  0  0  0
 87 88  1  1  0  0  0
 89 90  1  1  0  0  0
 91 92  1  6  0  0  0
 91105  1  0  0  0  0
 91 89  1  0  0  0  0
 93 91  1  0  0  0  0
 93 94  1  1  0  0  0
 95 96  1  6  0  0  0
 95 93  1  0  0  0  0
 95 97  1  0  0  0  0
 95102  1  0  0  0  0
 97 99  1  0  0  0  0
 98 97  1  0  0  0  0
100 97  1  0  0  0  0
101100  1  0  0  0  0
102 87  1  0  0  0  0
103104  1  0  0  0  0
103 93  1  0  0  0  0
105106  1  0  0  0  0
107 89  1  0  0  0  0
108107  1  0  0  0  0
M  END
