C:\Users\eirik\OneDrive - Norwegian University of Life Sciences\Documents\Masteroppgave\glycam\amylose\pdb\DGlcpa1-4DGlcpa1-4DGlcpa1-4DGlcpa1-4DGlcpa1-4DGlcpa1-4DGlcpa1-4DGlcpa1-OH_structure_min-gas.pdb DGlcpa1-4DGlcpa1-4DGlcpa1-4DGlcpa1-4DGlcpa1-4DGlcpa1-4DGlcpa1-4DGlcpa1-OH_structure_min-gas.pdb
 OpenBabel01122616503D

171178  0  0  1  0  0  0  0  0999 V2000
   -3.5110    9.8030   -1.8680 H   0  0  0  0  0  0  0  0  0  0  0  0
   -3.9850   10.0250   -2.6730 O   0  0  0  0  0  0  0  0  0  0  0  0
   -4.0200    8.8740   -3.5390 C   0  0  2  0  0  0  0  0  0  0  0  0
   -2.9950    8.5930   -3.7800 H   0  0  0  0  0  0  0  0  0  0  0  0
   -4.7830    9.1790   -4.8430 C   0  0  1  0  0  0  0  0  0  0  0  0
   -4.6360    8.3360   -5.5210 H   0  0  0  0  0  0  0  0  0  0  0  0
   -6.2900    9.3820   -4.6170 C   0  0  2  0  0  0  0  0  0  0  0  0
   -6.4620   10.3110   -4.0710 H   0  0  0  0  0  0  0  0  0  0  0  0
   -6.9070    8.1990   -3.8440 C   0  0  1  0  0  0  0  0  0  0  0  0
   -6.9200    7.3110   -4.4810 H   0  0  0  0  0  0  0  0  0  0  0  0
   -6.1260    7.8580   -2.5570 C   0  0  1  0  0  0  0  0  0  0  0  0
   -6.2530    8.6750   -1.8430 H   0  0  0  0  0  0  0  0  0  0  0  0
   -6.5730    6.5470   -1.9000 C   0  0  0  0  0  0  0  0  0  0  0  0
   -7.6360    6.5780   -1.6770 H   0  0  0  0  0  0  0  0  0  0  0  0
   -6.3840    5.6990   -2.5590 H   0  0  0  0  0  0  0  0  0  0  0  0
   -5.8550    6.3680   -0.6720 O   0  0  0  0  0  0  0  0  0  0  0  0
   -6.0310    7.1090   -0.0870 H   0  0  0  0  0  0  0  0  0  0  0  0
   -4.6790    7.7300   -2.8750 O   0  0  0  0  0  0  0  0  0  0  0  0
   -4.3120   11.1000   -4.8690 H   0  0  0  0  0  0  0  0  0  0  0  0
   -6.9350    9.4610   -5.9000 O   0  0  0  0  0  0  0  0  0  0  0  0
   -6.5610   10.1890   -6.4010 H   0  0  0  0  0  0  0  0  0  0  0  0
   -4.2150   10.3500   -5.4600 O   0  0  0  0  0  0  0  0  0  0  0  0
   -8.2830    8.5790   -3.4640 O   0  0  0  0  0  0  0  0  0  0  0  0
   -9.3670    8.0050   -4.2890 C   0  0  2  0  0  0  0  0  0  0  0  0
   -9.0200    7.9240   -5.3200 H   0  0  0  0  0  0  0  0  0  0  0  0
  -10.6140    8.9070   -4.2850 C   0  0  1  0  0  0  0  0  0  0  0  0
  -11.2870    8.5640   -5.0740 H   0  0  0  0  0  0  0  0  0  0  0  0
  -11.3540    8.8920   -2.9390 C   0  0  2  0  0  0  0  0  0  0  0  0
  -10.7600    9.4160   -2.1880 H   0  0  0  0  0  0  0  0  0  0  0  0
  -11.6510    7.4610   -2.4560 C   0  0  1  0  0  0  0  0  0  0  0  0
  -12.4190    7.0070   -3.0870 H   0  0  0  0  0  0  0  0  0  0  0  0
  -10.3970    6.5660   -2.4830 C   0  0  1  0  0  0  0  0  0  0  0  0
   -9.7020    6.9350   -1.7270 H   0  0  0  0  0  0  0  0  0  0  0  0
  -10.6850    5.0850   -2.2140 C   0  0  0  0  0  0  0  0  0  0  0  0
  -11.1950    4.9650   -1.2630 H   0  0  0  0  0  0  0  0  0  0  0  0
  -11.3140    4.6640   -2.9990 H   0  0  0  0  0  0  0  0  0  0  0  0
   -9.4440    4.3680   -2.1580 O   0  0  0  0  0  0  0  0  0  0  0  0
   -8.8910    4.7370   -1.4660 H   0  0  0  0  0  0  0  0  0  0  0  0
   -9.7490    6.6600   -3.8160 O   0  0  0  0  0  0  0  0  0  0  0  0
   -9.5930   10.5590   -3.9130 H   0  0  0  0  0  0  0  0  0  0  0  0
  -12.6120    9.5710   -3.1030 O   0  0  0  0  0  0  0  0  0  0  0  0
  -12.4540   10.4680   -3.4050 H   0  0  0  0  0  0  0  0  0  0  0  0
  -10.2070   10.2540   -4.5850 O   0  0  0  0  0  0  0  0  0  0  0  0
  -12.1160    7.5650   -1.0580 O   0  0  0  0  0  0  0  0  0  0  0  0
  -13.5400    7.2650   -0.8070 C   0  0  2  0  0  0  0  0  0  0  0  0
  -14.1210    7.5360   -1.6900 H   0  0  0  0  0  0  0  0  0  0  0  0
  -14.0760    8.0820    0.3810 C   0  0  1  0  0  0  0  0  0  0  0  0
  -15.1620    7.9760    0.4130 H   0  0  0  0  0  0  0  0  0  0  0  0
  -13.4740    7.6300    1.7200 C   0  0  2  0  0  0  0  0  0  0  0  0
  -12.4200    7.9130    1.7620 H   0  0  0  0  0  0  0  0  0  0  0  0
  -13.6100    6.1120    1.9350 C   0  0  1  0  0  0  0  0  0  0  0  0
  -14.6530    5.8600    2.1450 H   0  0  0  0  0  0  0  0  0  0  0  0
  -13.1380    5.2900    0.7190 C   0  0  1  0  0  0  0  0  0  0  0  0
  -12.0530    5.3840    0.6450 H   0  0  0  0  0  0  0  0  0  0  0  0
  -13.5060    3.8050    0.8080 C   0  0  0  0  0  0  0  0  0  0  0  0
  -13.1060    3.3720    1.7200 H   0  0  0  0  0  0  0  0  0  0  0  0
  -14.5880    3.6730    0.8090 H   0  0  0  0  0  0  0  0  0  0  0  0
  -12.9420    3.1090   -0.3120 O   0  0  0  0  0  0  0  0  0  0  0  0
  -11.9880    3.2230   -0.3130 H   0  0  0  0  0  0  0  0  0  0  0  0
  -13.7480    5.8310   -0.5240 O   0  0  0  0  0  0  0  0  0  0  0  0
  -12.8020    9.5700    0.1040 H   0  0  0  0  0  0  0  0  0  0  0  0
  -14.1810    8.2900    2.7850 O   0  0  0  0  0  0  0  0  0  0  0  0
  -14.1120    9.2410    2.6730 H   0  0  0  0  0  0  0  0  0  0  0  0
  -13.7550    9.4680    0.1640 O   0  0  0  0  0  0  0  0  0  0  0  0
  -12.7480    5.7680    3.0830 O   0  0  0  0  0  0  0  0  0  0  0  0
  -13.4200    5.3420    4.3260 C   0  0  2  0  0  0  0  0  0  0  0  0
  -14.3930    5.8320    4.3900 H   0  0  0  0  0  0  0  0  0  0  0  0
  -12.6000    5.7520    5.5610 C   0  0  1  0  0  0  0  0  0  0  0  0
  -13.2080    5.5870    6.4530 H   0  0  0  0  0  0  0  0  0  0  0  0
  -11.2880    4.9620    5.6780 C   0  0  2  0  0  0  0  0  0  0  0  0
  -10.6030    5.2710    4.8860 H   0  0  0  0  0  0  0  0  0  0  0  0
  -11.5190    3.4420    5.5980 C   0  0  1  0  0  0  0  0  0  0  0  0
  -11.9940    3.0930    6.5190 H   0  0  0  0  0  0  0  0  0  0  0  0
  -12.4010    3.0300    4.4020 C   0  0  1  0  0  0  0  0  0  0  0  0
  -11.8330    3.1910    3.4840 H   0  0  0  0  0  0  0  0  0  0  0  0
  -12.8530    1.5670    4.4600 C   0  0  0  0  0  0  0  0  0  0  0  0
  -11.9900    0.9100    4.5180 H   0  0  0  0  0  0  0  0  0  0  0  0
  -13.4810    1.3900    5.3340 H   0  0  0  0  0  0  0  0  0  0  0  0
  -13.5890    1.2480    3.2720 O   0  0  0  0  0  0  0  0  0  0  0  0
  -13.0370    1.4020    2.5020 H   0  0  0  0  0  0  0  0  0  0  0  0
  -13.6210    3.8800    4.3590 O   0  0  0  0  0  0  0  0  0  0  0  0
  -11.7880    7.3180    4.6670 H   0  0  0  0  0  0  0  0  0  0  0  0
  -10.6930    5.2500    6.9550 O   0  0  0  0  0  0  0  0  0  0  0  0
  -10.5380    6.1950    7.0300 H   0  0  0  0  0  0  0  0  0  0  0  0
  -12.2980    7.1560    5.4640 O   0  0  0  0  0  0  0  0  0  0  0  0
  -10.1920    2.8190    5.4260 O   0  0  0  0  0  0  0  0  0  0  0  0
   -9.6730    2.0270    6.5600 C   0  0  2  0  0  0  0  0  0  0  0  0
  -10.0660    2.4390    7.4900 H   0  0  0  0  0  0  0  0  0  0  0  0
   -8.1370    2.0970    6.6230 C   0  0  1  0  0  0  0  0  0  0  0  0
   -7.8090    1.6670    7.5710 H   0  0  0  0  0  0  0  0  0  0  0  0
   -7.4690    1.3500    5.4590 C   0  0  2  0  0  0  0  0  0  0  0  0
   -7.6410    1.8930    4.5280 H   0  0  0  0  0  0  0  0  0  0  0  0
   -7.9920   -0.0910    5.3220 C   0  0  1  0  0  0  0  0  0  0  0  0
   -7.6140   -0.6990    6.1470 H   0  0  0  0  0  0  0  0  0  0  0  0
   -9.5320   -0.1690    5.3170 C   0  0  1  0  0  0  0  0  0  0  0  0
   -9.8970    0.2740    4.3880 H   0  0  0  0  0  0  0  0  0  0  0  0
  -10.0660   -1.6010    5.4310 C   0  0  0  0  0  0  0  0  0  0  0  0
   -9.6730   -2.2130    4.6230 H   0  0  0  0  0  0  0  0  0  0  0  0
   -9.7690   -2.0500    6.3800 H   0  0  0  0  0  0  0  0  0  0  0  0
  -11.4960   -1.5860    5.3360 O   0  0  0  0  0  0  0  0  0  0  0  0
  -11.7580   -1.1930    4.5000 H   0  0  0  0  0  0  0  0  0  0  0  0
  -10.0770    0.6110    6.4590 O   0  0  0  0  0  0  0  0  0  0  0  0
   -8.0480    3.8790    5.7680 H   0  0  0  0  0  0  0  0  0  0  0  0
   -6.0540    1.2830    5.7110 O   0  0  0  0  0  0  0  0  0  0  0  0
   -5.7030    2.1720    5.8020 H   0  0  0  0  0  0  0  0  0  0  0  0
   -7.7410    3.4800    6.5860 O   0  0  0  0  0  0  0  0  0  0  0  0
   -7.4980   -0.6020    4.0280 O   0  0  0  0  0  0  0  0  0  0  0  0
   -6.4900   -1.6810    4.0760 C   0  0  2  0  0  0  0  0  0  0  0  0
   -5.9040   -1.5780    4.9900 H   0  0  0  0  0  0  0  0  0  0  0  0
   -5.5260   -1.5890    2.8820 C   0  0  1  0  0  0  0  0  0  0  0  0
   -4.6930   -2.2730    3.0550 H   0  0  0  0  0  0  0  0  0  0  0  0
   -6.2090   -1.9350    1.5500 C   0  0  2  0  0  0  0  0  0  0  0  0
   -6.9110   -1.1440    1.2810 H   0  0  0  0  0  0  0  0  0  0  0  0
   -6.9480   -3.2840    1.6130 C   0  0  1  0  0  0  0  0  0  0  0  0
   -6.2210   -4.1000    1.6430 H   0  0  0  0  0  0  0  0  0  0  0  0
   -7.8720   -3.4010    2.8420 C   0  0  1  0  0  0  0  0  0  0  0  0
   -8.7080   -2.7110    2.7120 H   0  0  0  0  0  0  0  0  0  0  0  0
   -8.4210   -4.8170    3.0530 C   0  0  0  0  0  0  0  0  0  0  0  0
   -8.9590   -5.1450    2.1680 H   0  0  0  0  0  0  0  0  0  0  0  0
   -7.6100   -5.5210    3.2460 H   0  0  0  0  0  0  0  0  0  0  0  0
   -9.3270   -4.8170    4.1640 O   0  0  0  0  0  0  0  0  0  0  0  0
  -10.0420   -4.1990    3.9940 H   0  0  0  0  0  0  0  0  0  0  0  0
   -7.1260   -3.0140    4.0690 O   0  0  0  0  0  0  0  0  0  0  0  0
   -5.7370    0.3680    2.6880 H   0  0  0  0  0  0  0  0  0  0  0  0
   -5.1980   -2.0350    0.5310 O   0  0  0  0  0  0  0  0  0  0  0  0
   -4.7210   -1.2040    0.4720 H   0  0  0  0  0  0  0  0  0  0  0  0
   -5.0110   -0.2470    2.8120 O   0  0  0  0  0  0  0  0  0  0  0  0
   -7.7810   -3.3690    0.3970 O   0  0  0  0  0  0  0  0  0  0  0  0
   -7.4280   -4.4130   -0.5870 C   0  0  2  0  0  0  0  0  0  0  0  0
   -6.3600   -4.6210   -0.5170 H   0  0  0  0  0  0  0  0  0  0  0  0
   -7.7260   -3.9370   -2.0190 C   0  0  1  0  0  0  0  0  0  0  0  0
   -7.2850   -4.6490   -2.7190 H   0  0  0  0  0  0  0  0  0  0  0  0
   -9.2330   -3.8130   -2.2900 C   0  0  2  0  0  0  0  0  0  0  0  0
   -9.6420   -2.9740   -1.7240 H   0  0  0  0  0  0  0  0  0  0  0  0
   -9.9910   -5.1020   -1.9240 C   0  0  1  0  0  0  0  0  0  0  0  0
   -9.7510   -5.8880   -2.6460 H   0  0  0  0  0  0  0  0  0  0  0  0
   -9.6500   -5.6180   -0.5110 C   0  0  1  0  0  0  0  0  0  0  0  0
  -10.0630   -4.9220    0.2220 H   0  0  0  0  0  0  0  0  0  0  0  0
  -10.2030   -7.0210   -0.2370 C   0  0  0  0  0  0  0  0  0  0  0  0
  -11.2820   -7.0350   -0.3790 H   0  0  0  0  0  0  0  0  0  0  0  0
   -9.7570   -7.7510   -0.9130 H   0  0  0  0  0  0  0  0  0  0  0  0
   -9.9170   -7.3890    1.1180 O   0  0  0  0  0  0  0  0  0  0  0  0
  -10.3110   -6.7490    1.7150 H   0  0  0  0  0  0  0  0  0  0  0  0
   -8.1730   -5.6640   -0.3390 O   0  0  0  0  0  0  0  0  0  0  0  0
   -7.4640   -2.0260   -1.5830 H   0  0  0  0  0  0  0  0  0  0  0  0
   -9.4240   -3.5720   -3.6960 O   0  0  0  0  0  0  0  0  0  0  0  0
   -8.9580   -2.7730   -3.9490 H   0  0  0  0  0  0  0  0  0  0  0  0
   -7.1050   -2.6540   -2.2140 O   0  0  0  0  0  0  0  0  0  0  0  0
  -11.4320   -4.7850   -1.9600 O   0  0  0  0  0  0  0  0  0  0  0  0
  -12.1970   -5.3270   -3.1000 C   0  0  2  0  0  0  0  0  0  0  0  0
  -11.5350   -5.4110   -3.9630 H   0  0  0  0  0  0  0  0  0  0  0  0
  -13.3540   -4.3880   -3.4860 C   0  0  1  0  0  0  0  0  0  0  0  0
  -13.7490   -4.7110   -4.4510 H   0  0  0  0  0  0  0  0  0  0  0  0
  -14.4860   -4.3770   -2.4460 C   0  0  2  0  0  0  0  0  0  0  0  0
  -14.1500   -3.8730   -1.5370 H   0  0  0  0  0  0  0  0  0  0  0  0
  -14.9560   -5.8060   -2.1170 C   0  0  1  0  0  0  0  0  0  0  0  0
  -15.4980   -6.2250   -2.9670 H   0  0  0  0  0  0  0  0  0  0  0  0
  -13.7900   -6.7450   -1.7420 C   0  0  1  0  0  0  0  0  0  0  0  0
  -13.3590   -6.4040   -0.7980 H   0  0  0  0  0  0  0  0  0  0  0  0
  -14.2050   -8.2150   -1.5970 C   0  0  0  0  0  0  0  0  0  0  0  0
  -15.0120   -8.3140   -0.8710 H   0  0  0  0  0  0  0  0  0  0  0  0
  -14.5500   -8.6140   -2.5520 H   0  0  0  0  0  0  0  0  0  0  0  0
  -13.0790   -8.9770   -1.1410 O   0  0  0  0  0  0  0  0  0  0  0  0
  -12.7780   -8.6300   -0.2980 H   0  0  0  0  0  0  0  0  0  0  0  0
  -12.7440   -6.6660   -2.7940 O   0  0  0  0  0  0  0  0  0  0  0  0
  -15.8390   -5.7280   -0.9840 O   0  0  0  0  0  0  0  0  0  0  0  0
  -16.5750   -5.1490   -1.1920 H   0  0  0  0  0  0  0  0  0  0  0  0
  -15.6000   -3.6590   -3.0070 O   0  0  0  0  0  0  0  0  0  0  0  0
  -15.3240   -2.7680   -3.2360 H   0  0  0  0  0  0  0  0  0  0  0  0
  -12.8320   -3.0540   -3.6300 O   0  0  0  0  0  0  0  0  0  0  0  0
  -12.4510   -2.7680   -2.7960 H   0  0  0  0  0  0  0  0  0  0  0  0
  2  1  1  0  0  0  0
  3  4  1  6  0  0  0
  3 18  1  0  0  0  0
  3  2  1  0  0  0  0
  5  6  1  6  0  0  0
  5  7  1  0  0  0  0
  5  3  1  0  0  0  0
  7  8  1  1  0  0  0
  7  9  1  0  0  0  0
  9 10  1  6  0  0  0
  9 23  1  0  0  0  0
  9 11  1  0  0  0  0
 11 13  1  0  0  0  0
 11 12  1  1  0  0  0
 13 14  1  0  0  0  0
 13 16  1  0  0  0  0
 15 13  1  0  0  0  0
 16 17  1  0  0  0  0
 18 11  1  0  0  0  0
 20  7  1  0  0  0  0
 21 20  1  0  0  0  0
 22 19  1  0  0  0  0
 22  5  1  0  0  0  0
 24 25  1  6  0  0  0
 24 26  1  0  0  0  0
 24 39  1  0  0  0  0
 24 23  1  0  0  0  0
 26 27  1  6  0  0  0
 26 28  1  0  0  0  0
 28 30  1  0  0  0  0
 28 29  1  1  0  0  0
 30 31  1  6  0  0  0
 30 44  1  0  0  0  0
 32 30  1  0  0  0  0
 32 34  1  0  0  0  0
 32 33  1  1  0  0  0
 34 37  1  0  0  0  0
 34 35  1  0  0  0  0
 36 34  1  0  0  0  0
 37 38  1  0  0  0  0
 39 32  1  0  0  0  0
 41 28  1  0  0  0  0
 42 41  1  0  0  0  0
 43 26  1  0  0  0  0
 43 40  1  0  0  0  0
 44 45  1  0  0  0  0
 45 46  1  6  0  0  0
 45 60  1  0  0  0  0
 45 47  1  0  0  0  0
 47 48  1  1  0  0  0
 47 49  1  0  0  0  0
 49 50  1  1  0  0  0
 49 51  1  0  0  0  0
 49 62  1  0  0  0  0
 51 52  1  1  0  0  0
 51 65  1  0  0  0  0
 53 54  1  6  0  0  0
 53 55  1  0  0  0  0
 53 51  1  0  0  0  0
 55 57  1  0  0  0  0
 55 56  1  0  0  0  0
 58 55  1  0  0  0  0
 59 58  1  0  0  0  0
 60 53  1  0  0  0  0
 61 64  1  0  0  0  0
 63 62  1  0  0  0  0
 64 47  1  0  0  0  0
 65 66  1  0  0  0  0
 66 81  1  0  0  0  0
 66 67  1  1  0  0  0
 66 68  1  0  0  0  0
 68 70  1  0  0  0  0
 68 69  1  1  0  0  0
 70 71  1  6  0  0  0
 70 83  1  0  0  0  0
 72 70  1  0  0  0  0
 72 73  1  1  0  0  0
 74 75  1  6  0  0  0
 74 76  1  0  0  0  0
 74 72  1  0  0  0  0
 76 77  1  0  0  0  0
 76 78  1  0  0  0  0
 79 76  1  0  0  0  0
 80 79  1  0  0  0  0
 81 74  1  0  0  0  0
 82 85  1  0  0  0  0
 83 84  1  0  0  0  0
 85 68  1  0  0  0  0
 86 72  1  0  0  0  0
 86 87  1  0  0  0  0
 87 89  1  0  0  0  0
 87 88  1  1  0  0  0
 89 90  1  1  0  0  0
 91 92  1  6  0  0  0
 91104  1  0  0  0  0
 91 89  1  0  0  0  0
 93 91  1  0  0  0  0
 93 94  1  1  0  0  0
 95 96  1  6  0  0  0
 95 93  1  0  0  0  0
 95 97  1  0  0  0  0
 95102  1  0  0  0  0
 97 99  1  0  0  0  0
 98 97  1  0  0  0  0
100 97  1  0  0  0  0
101100  1  0  0  0  0
102 87  1  0  0  0  0
103106  1  0  0  0  0
104105  1  0  0  0  0
106 89  1  0  0  0  0
107108  1  0  0  0  0
107 93  1  0  0  0  0
108109  1  1  0  0  0
110111  1  1  0  0  0
110108  1  0  0  0  0
112113  1  6  0  0  0
112114  1  0  0  0  0
112110  1  0  0  0  0
114115  1  1  0  0  0
114116  1  0  0  0  0
116117  1  6  0  0  0
116118  1  0  0  0  0
116123  1  0  0  0  0
118120  1  0  0  0  0
118121  1  0  0  0  0
119118  1  0  0  0  0
122121  1  0  0  0  0
123108  1  0  0  0  0
124127  1  0  0  0  0
125112  1  0  0  0  0
126125  1  0  0  0  0
127110  1  0  0  0  0
128114  1  0  0  0  0
129130  1  1  0  0  0
129144  1  0  0  0  0
129128  1  0  0  0  0
131132  1  6  0  0  0
131129  1  0  0  0  0
133131  1  0  0  0  0
133135  1  0  0  0  0
133134  1  1  0  0  0
135136  1  6  0  0  0
135137  1  0  0  0  0
137144  1  0  0  0  0
137139  1  0  0  0  0
137138  1  1  0  0  0
139142  1  0  0  0  0
140139  1  0  0  0  0
141139  1  0  0  0  0
142143  1  0  0  0  0
146133  1  0  0  0  0
147146  1  0  0  0  0
148131  1  0  0  0  0
148145  1  0  0  0  0
149135  1  0  0  0  0
150151  1  6  0  0  0
150165  1  0  0  0  0
150149  1  0  0  0  0
152153  1  6  0  0  0
152150  1  0  0  0  0
152154  1  0  0  0  0
154156  1  0  0  0  0
154155  1  1  0  0  0
156157  1  6  0  0  0
156158  1  0  0  0  0
156166  1  0  0  0  0
158160  1  0  0  0  0
158159  1  1  0  0  0
160163  1  0  0  0  0
160161  1  0  0  0  0
162160  1  0  0  0  0
163164  1  0  0  0  0
165158  1  0  0  0  0
167166  1  0  0  0  0
168154  1  0  0  0  0
169168  1  0  0  0  0
170152  1  0  0  0  0
170171  1  0  0  0  0
M  END
