C:\Users\eirik\OneDrive - Norwegian University of Life Sciences\Documents\Masteroppgave\glycam\amylose\pdb\DGlcpa1-4DGlcpa1-4DGlcpa1-4DGlcpa1-OH_structure_min-gas.pdb DGlcpa1-4DGlcpa1-4DGlcpa1-4DGlcpa1-OH_structure_min-gas.pdb
 OpenBabel01122616493D

 87 90  0  0  1  0  0  0  0  0999 V2000
   -3.5380    9.8720   -1.8790 H   0  0  0  0  0  0  0  0  0  0  0  0
   -4.0200   10.0860   -2.6810 O   0  0  0  0  0  0  0  0  0  0  0  0
   -4.0390    8.9360   -3.5480 C   0  0  2  0  0  0  0  0  0  0  0  0
   -3.0100    8.6750   -3.7960 H   0  0  0  0  0  0  0  0  0  0  0  0
   -4.8150    9.2280   -4.8480 C   0  0  1  0  0  0  0  0  0  0  0  0
   -4.6550    8.3890   -5.5280 H   0  0  0  0  0  0  0  0  0  0  0  0
   -6.3240    9.4000   -4.6130 C   0  0  2  0  0  0  0  0  0  0  0  0
   -6.5120   10.3250   -4.0640 H   0  0  0  0  0  0  0  0  0  0  0  0
   -6.9120    8.2040   -3.8390 C   0  0  1  0  0  0  0  0  0  0  0  0
   -6.9080    7.3160   -4.4780 H   0  0  0  0  0  0  0  0  0  0  0  0
   -6.1190    7.8790   -2.5560 C   0  0  1  0  0  0  0  0  0  0  0  0
   -6.2580    8.6930   -1.8420 H   0  0  0  0  0  0  0  0  0  0  0  0
   -6.5370    6.5600   -1.8950 C   0  0  0  0  0  0  0  0  0  0  0  0
   -7.5990    6.5720   -1.6630 H   0  0  0  0  0  0  0  0  0  0  0  0
   -6.3370    5.7160   -2.5560 H   0  0  0  0  0  0  0  0  0  0  0  0
   -5.8060    6.3940   -0.6730 O   0  0  0  0  0  0  0  0  0  0  0  0
   -5.9920    7.1320   -0.0860 H   0  0  0  0  0  0  0  0  0  0  0  0
   -4.6710    7.7790   -2.8820 O   0  0  0  0  0  0  0  0  0  0  0  0
   -4.3810   11.1580   -4.8720 H   0  0  0  0  0  0  0  0  0  0  0  0
   -6.9780    9.4690   -5.8920 O   0  0  0  0  0  0  0  0  0  0  0  0
   -6.6210   10.2060   -6.3940 H   0  0  0  0  0  0  0  0  0  0  0  0
   -4.2740   10.4110   -5.4660 O   0  0  0  0  0  0  0  0  0  0  0  0
   -8.2960    8.5520   -3.4540 O   0  0  0  0  0  0  0  0  0  0  0  0
   -9.3690    7.9560   -4.2790 C   0  0  2  0  0  0  0  0  0  0  0  0
   -9.0240    7.8940   -5.3120 H   0  0  0  0  0  0  0  0  0  0  0  0
  -10.6390    8.8250   -4.2630 C   0  0  1  0  0  0  0  0  0  0  0  0
  -11.3030    8.4750   -5.0550 H   0  0  0  0  0  0  0  0  0  0  0  0
  -11.3790    8.7750   -2.9170 C   0  0  2  0  0  0  0  0  0  0  0  0
  -10.8000    9.3060   -2.1590 H   0  0  0  0  0  0  0  0  0  0  0  0
  -11.6360    7.3300   -2.4520 C   0  0  1  0  0  0  0  0  0  0  0  0
  -12.3870    6.8610   -3.0930 H   0  0  0  0  0  0  0  0  0  0  0  0
  -10.3550    6.4750   -2.4830 C   0  0  1  0  0  0  0  0  0  0  0  0
   -9.6720    6.8620   -1.7260 H   0  0  0  0  0  0  0  0  0  0  0  0
  -10.5960    4.9840   -2.2210 C   0  0  0  0  0  0  0  0  0  0  0  0
  -11.0960    4.8460   -1.2660 H   0  0  0  0  0  0  0  0  0  0  0  0
  -11.2170    4.5480   -3.0040 H   0  0  0  0  0  0  0  0  0  0  0  0
   -9.3330    4.3060   -2.1770 O   0  0  0  0  0  0  0  0  0  0  0  0
   -8.7890    4.6870   -1.4840 H   0  0  0  0  0  0  0  0  0  0  0  0
   -9.7130    6.5970   -3.8170 O   0  0  0  0  0  0  0  0  0  0  0  0
   -9.6620   10.4990   -3.8690 H   0  0  0  0  0  0  0  0  0  0  0  0
  -12.6550    9.4200   -3.0740 O   0  0  0  0  0  0  0  0  0  0  0  0
  -12.5220   10.3260   -3.3640 H   0  0  0  0  0  0  0  0  0  0  0  0
  -10.2680   10.1870   -4.5450 O   0  0  0  0  0  0  0  0  0  0  0  0
  -12.1110    7.4030   -1.0560 O   0  0  0  0  0  0  0  0  0  0  0  0
  -13.5170    7.0210   -0.8100 C   0  0  2  0  0  0  0  0  0  0  0  0
  -14.1070    7.2460   -1.7000 H   0  0  0  0  0  0  0  0  0  0  0  0
  -14.1080    7.8220    0.3630 C   0  0  1  0  0  0  0  0  0  0  0  0
  -15.1860    7.6560    0.3870 H   0  0  0  0  0  0  0  0  0  0  0  0
  -13.4940    7.4210    1.7130 C   0  0  2  0  0  0  0  0  0  0  0  0
  -12.4570    7.7590    1.7600 H   0  0  0  0  0  0  0  0  0  0  0  0
  -13.5540    5.9000    1.9440 C   0  0  1  0  0  0  0  0  0  0  0  0
  -14.5870    5.5950    2.1320 H   0  0  0  0  0  0  0  0  0  0  0  0
  -13.0150    5.0930    0.7470 C   0  0  1  0  0  0  0  0  0  0  0  0
  -11.9370    5.2520    0.6830 H   0  0  0  0  0  0  0  0  0  0  0  0
  -13.2930    3.5890    0.8600 C   0  0  0  0  0  0  0  0  0  0  0  0
  -12.8720    3.1960    1.7820 H   0  0  0  0  0  0  0  0  0  0  0  0
  -14.3660    3.3930    0.8580 H   0  0  0  0  0  0  0  0  0  0  0  0
  -12.6830    2.9100   -0.2460 O   0  0  0  0  0  0  0  0  0  0  0  0
  -11.7380    3.0800   -0.2440 H   0  0  0  0  0  0  0  0  0  0  0  0
  -13.6420    5.5800   -0.5100 O   0  0  0  0  0  0  0  0  0  0  0  0
  -12.9180    9.3760    0.0770 H   0  0  0  0  0  0  0  0  0  0  0  0
  -14.2450    8.0570    2.7620 O   0  0  0  0  0  0  0  0  0  0  0  0
  -14.2250    9.0090    2.6380 H   0  0  0  0  0  0  0  0  0  0  0  0
  -13.8640    9.2210    0.1310 O   0  0  0  0  0  0  0  0  0  0  0  0
  -12.7020    5.6050    3.1120 O   0  0  0  0  0  0  0  0  0  0  0  0
  -13.3990    5.2610    4.3670 C   0  0  2  0  0  0  0  0  0  0  0  0
  -14.3600    5.7770    4.3910 H   0  0  0  0  0  0  0  0  0  0  0  0
  -12.5880    5.7200    5.5920 C   0  0  1  0  0  0  0  0  0  0  0  0
  -13.2270    5.6450    6.4740 H   0  0  0  0  0  0  0  0  0  0  0  0
  -11.3140    4.8870    5.8110 C   0  0  2  0  0  0  0  0  0  0  0  0
  -10.5870    5.1090    5.0270 H   0  0  0  0  0  0  0  0  0  0  0  0
  -11.6290    3.3800    5.8300 C   0  0  1  0  0  0  0  0  0  0  0  0
  -12.1690    3.1230    6.7430 H   0  0  0  0  0  0  0  0  0  0  0  0
  -12.4520    2.9280    4.6050 C   0  0  1  0  0  0  0  0  0  0  0  0
  -11.8350    3.0400    3.7120 H   0  0  0  0  0  0  0  0  0  0  0  0
  -12.9430    1.4770    4.6930 C   0  0  0  0  0  0  0  0  0  0  0  0
  -12.1030    0.7990    4.8470 H   0  0  0  0  0  0  0  0  0  0  0  0
  -13.6410    1.3550    5.5230 H   0  0  0  0  0  0  0  0  0  0  0  0
  -13.5960    1.1290    3.4650 O   0  0  0  0  0  0  0  0  0  0  0  0
  -12.9810    1.2300    2.7350 H   0  0  0  0  0  0  0  0  0  0  0  0
  -13.6430    3.8070    4.4680 O   0  0  0  0  0  0  0  0  0  0  0  0
  -10.3790    2.6690    5.8040 O   0  0  0  0  0  0  0  0  0  0  0  0
   -9.8460    2.9330    6.5580 H   0  0  0  0  0  0  0  0  0  0  0  0
  -10.7610    5.2430    7.0910 O   0  0  0  0  0  0  0  0  0  0  0  0
  -10.5710    6.1840    7.1060 H   0  0  0  0  0  0  0  0  0  0  0  0
  -12.2220    7.1010    5.4090 O   0  0  0  0  0  0  0  0  0  0  0  0
  -11.6860    7.1870    4.6170 H   0  0  0  0  0  0  0  0  0  0  0  0
  2  1  1  0  0  0  0
  3  4  1  6  0  0  0
  3 18  1  0  0  0  0
  3  2  1  0  0  0  0
  5  6  1  6  0  0  0
  5  7  1  0  0  0  0
  5  3  1  0  0  0  0
  7  8  1  1  0  0  0
  7  9  1  0  0  0  0
  9 10  1  6  0  0  0
  9 23  1  0  0  0  0
  9 11  1  0  0  0  0
 11 13  1  0  0  0  0
 11 12  1  1  0  0  0
 13 14  1  0  0  0  0
 13 16  1  0  0  0  0
 15 13  1  0  0  0  0
 16 17  1  0  0  0  0
 18 11  1  0  0  0  0
 20  7  1  0  0  0  0
 21 20  1  0  0  0  0
 22 19  1  0  0  0  0
 22  5  1  0  0  0  0
 24 25  1  6  0  0  0
 24 26  1  0  0  0  0
 24 39  1  0  0  0  0
 24 23  1  0  0  0  0
 26 27  1  6  0  0  0
 26 28  1  0  0  0  0
 28 30  1  0  0  0  0
 28 29  1  1  0  0  0
 30 31  1  6  0  0  0
 30 44  1  0  0  0  0
 32 30  1  0  0  0  0
 32 34  1  0  0  0  0
 32 33  1  1  0  0  0
 34 37  1  0  0  0  0
 34 35  1  0  0  0  0
 36 34  1  0  0  0  0
 37 38  1  0  0  0  0
 39 32  1  0  0  0  0
 41 28  1  0  0  0  0
 42 41  1  0  0  0  0
 43 26  1  0  0  0  0
 43 40  1  0  0  0  0
 44 45  1  0  0  0  0
 45 46  1  6  0  0  0
 45 60  1  0  0  0  0
 45 47  1  0  0  0  0
 47 48  1  1  0  0  0
 47 49  1  0  0  0  0
 49 50  1  1  0  0  0
 49 51  1  0  0  0  0
 49 62  1  0  0  0  0
 51 52  1  1  0  0  0
 51 65  1  0  0  0  0
 53 54  1  6  0  0  0
 53 55  1  0  0  0  0
 53 51  1  0  0  0  0
 55 56  1  0  0  0  0
 57 55  1  0  0  0  0
 58 59  1  0  0  0  0
 58 55  1  0  0  0  0
 60 53  1  0  0  0  0
 61 64  1  0  0  0  0
 63 62  1  0  0  0  0
 64 47  1  0  0  0  0
 65 66  1  0  0  0  0
 66 67  1  1  0  0  0
 66 81  1  0  0  0  0
 66 68  1  0  0  0  0
 68 70  1  0  0  0  0
 68 69  1  1  0  0  0
 70 71  1  6  0  0  0
 70 72  1  0  0  0  0
 70 84  1  0  0  0  0
 72 73  1  1  0  0  0
 74 75  1  6  0  0  0
 74 76  1  0  0  0  0
 74 72  1  0  0  0  0
 76 77  1  0  0  0  0
 76 78  1  0  0  0  0
 79 76  1  0  0  0  0
 80 79  1  0  0  0  0
 81 74  1  0  0  0  0
 82 72  1  0  0  0  0
 82 83  1  0  0  0  0
 84 85  1  0  0  0  0
 86 68  1  0  0  0  0
 87 86  1  0  0  0  0
M  END
