C:\Users\eirik\OneDrive - Norwegian University of Life Sciences\Documents\Masteroppgave\glycam\amylose\pdb\DGlcpa1-4DGlcpa1-4DGlcpa1-4DGlcpa1-4DGlcpa1-4DGlcpa1-4DGlcpa1-OH_structure_min-gas.pdb DGlcpa1-4DGlcpa1-4DGlcpa1-4DGlcpa1-4DGlcpa1-4DGlcpa1-4DGlcpa1-OH_structure_min-gas.pdb
 OpenBabel01122616503D

150156  0  0  1  0  0  0  0  0999 V2000
   -3.5060    9.8080   -1.8720 H   0  0  0  0  0  0  0  0  0  0  0  0
   -3.9800   10.0300   -2.6770 O   0  0  0  0  0  0  0  0  0  0  0  0
   -4.0170    8.8810   -3.5440 C   0  0  2  0  0  0  0  0  0  0  0  0
   -2.9920    8.6000   -3.7860 H   0  0  0  0  0  0  0  0  0  0  0  0
   -4.7800    9.1870   -4.8470 C   0  0  1  0  0  0  0  0  0  0  0  0
   -4.6350    8.3450   -5.5260 H   0  0  0  0  0  0  0  0  0  0  0  0
   -6.2870    9.3900   -4.6190 C   0  0  2  0  0  0  0  0  0  0  0  0
   -6.4580   10.3190   -4.0720 H   0  0  0  0  0  0  0  0  0  0  0  0
   -6.9030    8.2070   -3.8460 C   0  0  1  0  0  0  0  0  0  0  0  0
   -6.9180    7.3200   -4.4850 H   0  0  0  0  0  0  0  0  0  0  0  0
   -6.1210    7.8640   -2.5610 C   0  0  1  0  0  0  0  0  0  0  0  0
   -6.2470    8.6800   -1.8450 H   0  0  0  0  0  0  0  0  0  0  0  0
   -6.5680    6.5520   -1.9050 C   0  0  0  0  0  0  0  0  0  0  0  0
   -7.6310    6.5830   -1.6810 H   0  0  0  0  0  0  0  0  0  0  0  0
   -6.3790    5.7050   -2.5660 H   0  0  0  0  0  0  0  0  0  0  0  0
   -5.8490    6.3710   -0.6780 O   0  0  0  0  0  0  0  0  0  0  0  0
   -6.0240    7.1110   -0.0920 H   0  0  0  0  0  0  0  0  0  0  0  0
   -4.6740    7.7360   -2.8810 O   0  0  0  0  0  0  0  0  0  0  0  0
   -4.3090   11.1080   -4.8710 H   0  0  0  0  0  0  0  0  0  0  0  0
   -6.9340    9.4710   -5.9010 O   0  0  0  0  0  0  0  0  0  0  0  0
   -6.5600   10.1990   -6.4020 H   0  0  0  0  0  0  0  0  0  0  0  0
   -4.2130   10.3590   -5.4630 O   0  0  0  0  0  0  0  0  0  0  0  0
   -8.2790    8.5870   -3.4640 O   0  0  0  0  0  0  0  0  0  0  0  0
   -9.3650    8.0140   -4.2890 C   0  0  2  0  0  0  0  0  0  0  0  0
   -9.0190    7.9350   -5.3200 H   0  0  0  0  0  0  0  0  0  0  0  0
  -10.6110    8.9170   -4.2820 C   0  0  1  0  0  0  0  0  0  0  0  0
  -11.2860    8.5760   -5.0690 H   0  0  0  0  0  0  0  0  0  0  0  0
  -11.3490    8.9020   -2.9340 C   0  0  2  0  0  0  0  0  0  0  0  0
  -10.7530    9.4250   -2.1830 H   0  0  0  0  0  0  0  0  0  0  0  0
  -11.6450    7.4700   -2.4520 C   0  0  1  0  0  0  0  0  0  0  0  0
  -12.4160    7.0180   -3.0810 H   0  0  0  0  0  0  0  0  0  0  0  0
  -10.3920    6.5740   -2.4820 C   0  0  1  0  0  0  0  0  0  0  0  0
   -9.6960    6.9410   -1.7280 H   0  0  0  0  0  0  0  0  0  0  0  0
  -10.6810    5.0930   -2.2160 C   0  0  0  0  0  0  0  0  0  0  0  0
  -11.1900    4.9720   -1.2640 H   0  0  0  0  0  0  0  0  0  0  0  0
  -11.3120    4.6740   -3.0010 H   0  0  0  0  0  0  0  0  0  0  0  0
   -9.4410    4.3750   -2.1640 O   0  0  0  0  0  0  0  0  0  0  0  0
   -8.8870    4.7420   -1.4710 H   0  0  0  0  0  0  0  0  0  0  0  0
   -9.7470    6.6690   -3.8170 O   0  0  0  0  0  0  0  0  0  0  0  0
   -9.5880   10.5680   -3.9090 H   0  0  0  0  0  0  0  0  0  0  0  0
  -12.6060    9.5820   -3.0950 O   0  0  0  0  0  0  0  0  0  0  0  0
  -12.4480   10.4790   -3.3970 H   0  0  0  0  0  0  0  0  0  0  0  0
  -10.2030   10.2650   -4.5810 O   0  0  0  0  0  0  0  0  0  0  0  0
  -12.1060    7.5730   -1.0530 O   0  0  0  0  0  0  0  0  0  0  0  0
  -13.5310    7.2770   -0.7980 C   0  0  2  0  0  0  0  0  0  0  0  0
  -14.1130    7.5520   -1.6790 H   0  0  0  0  0  0  0  0  0  0  0  0
  -14.0600    8.0920    0.3940 C   0  0  1  0  0  0  0  0  0  0  0  0
  -15.1460    7.9900    0.4280 H   0  0  0  0  0  0  0  0  0  0  0  0
  -13.4570    7.6340    1.7300 C   0  0  2  0  0  0  0  0  0  0  0  0
  -12.4020    7.9130    1.7700 H   0  0  0  0  0  0  0  0  0  0  0  0
  -13.5980    6.1160    1.9410 C   0  0  1  0  0  0  0  0  0  0  0  0
  -14.6410    5.8670    2.1520 H   0  0  0  0  0  0  0  0  0  0  0  0
  -13.1300    5.2970    0.7210 C   0  0  1  0  0  0  0  0  0  0  0  0
  -12.0460    5.3890    0.6450 H   0  0  0  0  0  0  0  0  0  0  0  0
  -13.5020    3.8120    0.8070 C   0  0  0  0  0  0  0  0  0  0  0  0
  -13.1000    3.3760    1.7170 H   0  0  0  0  0  0  0  0  0  0  0  0
  -14.5850    3.6830    0.8110 H   0  0  0  0  0  0  0  0  0  0  0  0
  -12.9420    3.1180   -0.3170 O   0  0  0  0  0  0  0  0  0  0  0  0
  -11.9890    3.2300   -0.3200 H   0  0  0  0  0  0  0  0  0  0  0  0
  -13.7420    5.8430   -0.5190 O   0  0  0  0  0  0  0  0  0  0  0  0
  -12.7830    9.5770    0.1170 H   0  0  0  0  0  0  0  0  0  0  0  0
  -14.1590    8.2940    2.7980 O   0  0  0  0  0  0  0  0  0  0  0  0
  -14.0870    9.2450    2.6890 H   0  0  0  0  0  0  0  0  0  0  0  0
  -13.7360    9.4780    0.1800 O   0  0  0  0  0  0  0  0  0  0  0  0
  -12.7350    5.7650    3.0860 O   0  0  0  0  0  0  0  0  0  0  0  0
  -13.4100    5.3480    4.3320 C   0  0  2  0  0  0  0  0  0  0  0  0
  -14.3750    5.8500    4.3980 H   0  0  0  0  0  0  0  0  0  0  0  0
  -12.5800    5.7460    5.5650 C   0  0  1  0  0  0  0  0  0  0  0  0
  -13.1900    5.5920    6.4570 H   0  0  0  0  0  0  0  0  0  0  0  0
  -11.2810    4.9350    5.6810 C   0  0  2  0  0  0  0  0  0  0  0  0
  -10.5910    5.2320    4.8880 H   0  0  0  0  0  0  0  0  0  0  0  0
  -11.5360    3.4190    5.6040 C   0  0  1  0  0  0  0  0  0  0  0  0
  -12.0200    3.0800    6.5230 H   0  0  0  0  0  0  0  0  0  0  0  0
  -12.4220    3.0220    4.4050 C   0  0  1  0  0  0  0  0  0  0  0  0
  -11.8500    3.1770    3.4890 H   0  0  0  0  0  0  0  0  0  0  0  0
  -12.8940    1.5650    4.4590 C   0  0  0  0  0  0  0  0  0  0  0  0
  -12.0400    0.8960    4.5140 H   0  0  0  0  0  0  0  0  0  0  0  0
  -13.5240    1.3940    5.3330 H   0  0  0  0  0  0  0  0  0  0  0  0
  -13.6350    1.2600    3.2700 O   0  0  0  0  0  0  0  0  0  0  0  0
  -13.0810    1.4080    2.5000 H   0  0  0  0  0  0  0  0  0  0  0  0
  -13.6300    3.8890    4.3630 O   0  0  0  0  0  0  0  0  0  0  0  0
  -11.7450    7.2980    4.6670 H   0  0  0  0  0  0  0  0  0  0  0  0
  -10.6800    5.2160    6.9580 O   0  0  0  0  0  0  0  0  0  0  0  0
  -10.5110    6.1580    7.0310 H   0  0  0  0  0  0  0  0  0  0  0  0
  -12.2570    7.1450    5.4650 O   0  0  0  0  0  0  0  0  0  0  0  0
  -10.2190    2.7730    5.4370 O   0  0  0  0  0  0  0  0  0  0  0  0
   -9.7200    1.9710    6.5720 C   0  0  2  0  0  0  0  0  0  0  0  0
  -10.1120    2.3870    7.5010 H   0  0  0  0  0  0  0  0  0  0  0  0
   -8.1830    2.0150    6.6440 C   0  0  1  0  0  0  0  0  0  0  0  0
   -7.8690    1.5780    7.5940 H   0  0  0  0  0  0  0  0  0  0  0  0
   -7.5210    1.2580    5.4830 C   0  0  2  0  0  0  0  0  0  0  0  0
   -7.6770    1.8050    4.5510 H   0  0  0  0  0  0  0  0  0  0  0  0
   -8.0680   -0.1740    5.3410 C   0  0  1  0  0  0  0  0  0  0  0  0
   -7.7050   -0.7900    6.1680 H   0  0  0  0  0  0  0  0  0  0  0  0
   -9.6090   -0.2250    5.3250 C   0  0  1  0  0  0  0  0  0  0  0  0
   -9.9590    0.2260    4.3950 H   0  0  0  0  0  0  0  0  0  0  0  0
  -10.1680   -1.6490    5.4310 C   0  0  0  0  0  0  0  0  0  0  0  0
   -9.7820   -2.2630    4.6220 H   0  0  0  0  0  0  0  0  0  0  0  0
   -9.8830   -2.1060    6.3790 H   0  0  0  0  0  0  0  0  0  0  0  0
  -11.5970   -1.6080    5.3300 O   0  0  0  0  0  0  0  0  0  0  0  0
  -11.8480   -1.2070    4.4940 H   0  0  0  0  0  0  0  0  0  0  0  0
  -10.1470    0.5610    6.4660 O   0  0  0  0  0  0  0  0  0  0  0  0
   -8.0590    3.7950    5.7910 H   0  0  0  0  0  0  0  0  0  0  0  0
   -6.1090    1.1650    5.7450 O   0  0  0  0  0  0  0  0  0  0  0  0
   -5.7430    2.0480    5.8380 H   0  0  0  0  0  0  0  0  0  0  0  0
   -7.7630    3.3910    6.6100 O   0  0  0  0  0  0  0  0  0  0  0  0
   -7.5730   -0.6910    4.0490 O   0  0  0  0  0  0  0  0  0  0  0  0
   -6.6190   -1.8170    4.0970 C   0  0  2  0  0  0  0  0  0  0  0  0
   -6.0590   -1.7690    5.0320 H   0  0  0  0  0  0  0  0  0  0  0  0
   -5.6120   -1.7320    2.9370 C   0  0  1  0  0  0  0  0  0  0  0  0
   -4.8190   -2.4610    3.1120 H   0  0  0  0  0  0  0  0  0  0  0  0
   -6.2680   -2.0000    1.5750 C   0  0  2  0  0  0  0  0  0  0  0  0
   -6.9280   -1.1700    1.3130 H   0  0  0  0  0  0  0  0  0  0  0  0
   -7.0670   -3.3160    1.5710 C   0  0  1  0  0  0  0  0  0  0  0  0
   -6.3780   -4.1650    1.5990 H   0  0  0  0  0  0  0  0  0  0  0  0
   -8.0350   -3.4330    2.7650 C   0  0  1  0  0  0  0  0  0  0  0  0
   -8.8380   -2.7050    2.6340 H   0  0  0  0  0  0  0  0  0  0  0  0
   -8.6460   -4.8330    2.9040 C   0  0  0  0  0  0  0  0  0  0  0  0
   -9.1630   -5.1110    1.9890 H   0  0  0  0  0  0  0  0  0  0  0  0
   -7.8710   -5.5750    3.1020 H   0  0  0  0  0  0  0  0  0  0  0  0
   -9.5920   -4.8340    3.9810 O   0  0  0  0  0  0  0  0  0  0  0  0
  -10.2760   -4.1830    3.8070 H   0  0  0  0  0  0  0  0  0  0  0  0
   -7.3130   -3.1190    4.0270 O   0  0  0  0  0  0  0  0  0  0  0  0
   -5.7240    0.2390    2.8060 H   0  0  0  0  0  0  0  0  0  0  0  0
   -5.2310   -2.1090    0.5830 O   0  0  0  0  0  0  0  0  0  0  0  0
   -4.7170   -1.2990    0.5690 H   0  0  0  0  0  0  0  0  0  0  0  0
   -5.0320   -0.4150    2.9300 O   0  0  0  0  0  0  0  0  0  0  0  0
   -7.8660   -3.3370    0.3300 O   0  0  0  0  0  0  0  0  0  0  0  0
   -7.4160   -4.2650   -0.7270 C   0  0  2  0  0  0  0  0  0  0  0  0
   -6.3340   -4.3840   -0.6560 H   0  0  0  0  0  0  0  0  0  0  0  0
   -7.7340   -3.7050   -2.1250 C   0  0  1  0  0  0  0  0  0  0  0  0
   -7.2000   -4.3060   -2.8640 H   0  0  0  0  0  0  0  0  0  0  0  0
   -9.2380   -3.7200   -2.4450 C   0  0  2  0  0  0  0  0  0  0  0  0
   -9.7540   -2.9720   -1.8390 H   0  0  0  0  0  0  0  0  0  0  0  0
   -9.8480   -5.1130   -2.2010 C   0  0  1  0  0  0  0  0  0  0  0  0
   -9.4960   -5.8120   -2.9630 H   0  0  0  0  0  0  0  0  0  0  0  0
   -9.5150   -5.6720   -0.8020 C   0  0  1  0  0  0  0  0  0  0  0  0
  -10.0110   -5.0510   -0.0530 H   0  0  0  0  0  0  0  0  0  0  0  0
   -9.9450   -7.1320   -0.6040 C   0  0  0  0  0  0  0  0  0  0  0  0
  -11.0100   -7.2470   -0.8070 H   0  0  0  0  0  0  0  0  0  0  0  0
   -9.3920   -7.7910   -1.2740 H   0  0  0  0  0  0  0  0  0  0  0  0
   -9.6920   -7.5130    0.7550 O   0  0  0  0  0  0  0  0  0  0  0  0
  -10.1820   -6.9370    1.3460 H   0  0  0  0  0  0  0  0  0  0  0  0
   -8.0470   -5.5930   -0.5830 O   0  0  0  0  0  0  0  0  0  0  0  0
  -11.2780   -4.9900   -2.2950 O   0  0  0  0  0  0  0  0  0  0  0  0
  -11.5120   -4.6440   -3.1600 H   0  0  0  0  0  0  0  0  0  0  0  0
   -9.4010   -3.4000   -3.8390 O   0  0  0  0  0  0  0  0  0  0  0  0
   -9.0120   -2.5410   -4.0170 H   0  0  0  0  0  0  0  0  0  0  0  0
   -7.2500   -2.3520   -2.2000 O   0  0  0  0  0  0  0  0  0  0  0  0
   -7.6880   -1.8180   -1.5330 H   0  0  0  0  0  0  0  0  0  0  0  0
  2  1  1  0  0  0  0
  3  4  1  6  0  0  0
  3 18  1  0  0  0  0
  3  2  1  0  0  0  0
  5  6  1  6  0  0  0
  5  7  1  0  0  0  0
  5  3  1  0  0  0  0
  7  8  1  1  0  0  0
  7  9  1  0  0  0  0
  9 10  1  6  0  0  0
  9 23  1  0  0  0  0
  9 11  1  0  0  0  0
 11 13  1  0  0  0  0
 11 12  1  1  0  0  0
 13 14  1  0  0  0  0
 13 16  1  0  0  0  0
 15 13  1  0  0  0  0
 16 17  1  0  0  0  0
 18 11  1  0  0  0  0
 20  7  1  0  0  0  0
 21 20  1  0  0  0  0
 22 19  1  0  0  0  0
 22  5  1  0  0  0  0
 24 25  1  6  0  0  0
 24 26  1  0  0  0  0
 24 39  1  0  0  0  0
 24 23  1  0  0  0  0
 26 27  1  6  0  0  0
 26 28  1  0  0  0  0
 28 30  1  0  0  0  0
 28 29  1  1  0  0  0
 30 31  1  6  0  0  0
 30 44  1  0  0  0  0
 32 30  1  0  0  0  0
 32 34  1  0  0  0  0
 32 33  1  1  0  0  0
 34 37  1  0  0  0  0
 34 35  1  0  0  0  0
 36 34  1  0  0  0  0
 37 38  1  0  0  0  0
 39 32  1  0  0  0  0
 41 28  1  0  0  0  0
 42 41  1  0  0  0  0
 43 26  1  0  0  0  0
 43 40  1  0  0  0  0
 44 45  1  0  0  0  0
 45 46  1  6  0  0  0
 45 60  1  0  0  0  0
 45 47  1  0  0  0  0
 47 48  1  1  0  0  0
 47 49  1  0  0  0  0
 49 50  1  1  0  0  0
 49 51  1  0  0  0  0
 49 62  1  0  0  0  0
 51 52  1  1  0  0  0
 51 65  1  0  0  0  0
 53 54  1  6  0  0  0
 53 55  1  0  0  0  0
 53 51  1  0  0  0  0
 55 57  1  0  0  0  0
 55 56  1  0  0  0  0
 58 55  1  0  0  0  0
 59 58  1  0  0  0  0
 60 53  1  0  0  0  0
 61 64  1  0  0  0  0
 63 62  1  0  0  0  0
 64 47  1  0  0  0  0
 65 66  1  0  0  0  0
 66 81  1  0  0  0  0
 66 67  1  1  0  0  0
 66 68  1  0  0  0  0
 68 70  1  0  0  0  0
 68 69  1  1  0  0  0
 70 71  1  6  0  0  0
 70 83  1  0  0  0  0
 72 70  1  0  0  0  0
 72 73  1  1  0  0  0
 74 75  1  6  0  0  0
 74 76  1  0  0  0  0
 74 72  1  0  0  0  0
 76 77  1  0  0  0  0
 76 78  1  0  0  0  0
 79 76  1  0  0  0  0
 80 79  1  0  0  0  0
 81 74  1  0  0  0  0
 82 85  1  0  0  0  0
 83 84  1  0  0  0  0
 85 68  1  0  0  0  0
 86 72  1  0  0  0  0
 86 87  1  0  0  0  0
 87 89  1  0  0  0  0
 87 88  1  1  0  0  0
 89 90  1  1  0  0  0
 91 92  1  6  0  0  0
 91104  1  0  0  0  0
 91 89  1  0  0  0  0
 93 91  1  0  0  0  0
 93 94  1  1  0  0  0
 95 96  1  6  0  0  0
 95 93  1  0  0  0  0
 95 97  1  0  0  0  0
 95102  1  0  0  0  0
 97 99  1  0  0  0  0
 98 97  1  0  0  0  0
100 97  1  0  0  0  0
101100  1  0  0  0  0
102 87  1  0  0  0  0
103106  1  0  0  0  0
104105  1  0  0  0  0
106 89  1  0  0  0  0
107108  1  0  0  0  0
107 93  1  0  0  0  0
108109  1  1  0  0  0
110111  1  1  0  0  0
110108  1  0  0  0  0
112113  1  6  0  0  0
112110  1  0  0  0  0
114112  1  0  0  0  0
114115  1  1  0  0  0
114116  1  0  0  0  0
116117  1  6  0  0  0
116118  1  0  0  0  0
116123  1  0  0  0  0
118120  1  0  0  0  0
118121  1  0  0  0  0
119118  1  0  0  0  0
122121  1  0  0  0  0
123108  1  0  0  0  0
124127  1  0  0  0  0
125112  1  0  0  0  0
126125  1  0  0  0  0
127110  1  0  0  0  0
128114  1  0  0  0  0
129130  1  1  0  0  0
129144  1  0  0  0  0
129128  1  0  0  0  0
131132  1  6  0  0  0
131129  1  0  0  0  0
133135  1  0  0  0  0
133131  1  0  0  0  0
133134  1  1  0  0  0
135136  1  6  0  0  0
135137  1  0  0  0  0
137139  1  0  0  0  0
137144  1  0  0  0  0
137138  1  1  0  0  0
139142  1  0  0  0  0
140139  1  0  0  0  0
141139  1  0  0  0  0
142143  1  0  0  0  0
145135  1  0  0  0  0
146145  1  0  0  0  0
147133  1  0  0  0  0
148147  1  0  0  0  0
149131  1  0  0  0  0
149150  1  0  0  0  0
M  END
