C:\Users\eirik\OneDrive - Norwegian University of Life Sciences\Documents\Masteroppgave\glycam\NAG_kitin\pdb\DGlcpNAcb1-4DGlcpNAcb1-4DGlcpNAcb1-4DGlcpNAcb1-OH_structure_min-gas.pdb DGlcpNAcb1-4DGlcpNAcb1-4DGlcpNAcb1-4DGlcpNAcb1-OH_structure_min-gas.pdb
 OpenBabel01122616553D

111114  0  0  1  0  0  0  0  0999 V2000
   -3.5190    9.2440   -1.3080 H   0  0  0  0  0  0  0  0  0  0  0  0
   -4.0360    9.5340   -2.0630 O   0  0  0  0  0  0  0  0  0  0  0  0
   -3.7720   10.9210   -2.3190 C   0  0  2  0  0  0  0  0  0  0  0  0
   -2.7090   11.0400   -2.5320 H   0  0  0  0  0  0  0  0  0  0  0  0
   -4.1160   11.7430   -1.1410 O   0  0  0  0  0  0  0  0  0  0  0  0
   -3.9160   13.2030   -1.2830 C   0  0  2  0  0  0  0  0  0  0  0  0
   -2.8650   13.3910   -1.5160 H   0  0  0  0  0  0  0  0  0  0  0  0
   -4.2580   13.8680    0.0560 C   0  0  0  0  0  0  0  0  0  0  0  0
   -5.2750   13.6210    0.3610 H   0  0  0  0  0  0  0  0  0  0  0  0
   -4.1740   14.9520   -0.0220 H   0  0  0  0  0  0  0  0  0  0  0  0
   -3.3350   13.4060    1.0530 O   0  0  0  0  0  0  0  0  0  0  0  0
   -3.4030   12.4520    1.1330 H   0  0  0  0  0  0  0  0  0  0  0  0
   -4.7860   13.6940   -2.4530 C   0  0  2  0  0  0  0  0  0  0  0  0
   -5.8410   13.5900   -2.1840 H   0  0  0  0  0  0  0  0  0  0  0  0
   -3.7690   10.1440   -7.3800 H   0  0  0  0  0  0  0  0  0  0  0  0
   -4.5090   12.9000   -3.7400 C   0  0  2  0  0  0  0  0  0  0  0  0
   -3.5090   13.1460   -4.1050 H   0  0  0  0  0  0  0  0  0  0  0  0
   -5.4770   13.2990   -4.7290 O   0  0  0  0  0  0  0  0  0  0  0  0
   -5.3170   12.8180   -5.5440 H   0  0  0  0  0  0  0  0  0  0  0  0
   -4.6190   11.3790   -3.5250 C   0  0  1  0  0  0  0  0  0  0  0  0
   -5.6640   11.1310   -3.3230 H   0  0  0  0  0  0  0  0  0  0  0  0
   -4.1740   10.6770   -4.7380 N   0  0  0  0  0  0  0  0  0  0  0  0
   -3.1880   10.7390   -4.9470 H   0  0  0  0  0  0  0  0  0  0  0  0
   -4.9720    9.9970   -5.5810 C   0  0  0  0  0  0  0  0  0  0  0  0
   -6.1890    9.8720   -5.4300 O   0  0  0  0  0  0  0  0  0  0  0  0
   -4.2520    9.3650   -6.7880 C   0  0  0  0  0  0  0  0  0  0  0  0
   -3.4990    8.6560   -6.4420 H   0  0  0  0  0  0  0  0  0  0  0  0
   -4.9670    8.8360   -7.4200 H   0  0  0  0  0  0  0  0  0  0  0  0
   -4.4510   15.1070   -2.7090 O   0  0  0  0  0  0  0  0  0  0  0  0
   -5.5200   16.0850   -2.4530 C   0  0  2  0  0  0  0  0  0  0  0  0
   -5.9640   15.8840   -1.4760 H   0  0  0  0  0  0  0  0  0  0  0  0
   -6.5700   16.0090   -3.4900 O   0  0  0  0  0  0  0  0  0  0  0  0
   -7.6730   16.9890   -3.3790 C   0  0  2  0  0  0  0  0  0  0  0  0
   -8.1550   16.8700   -2.4060 H   0  0  0  0  0  0  0  0  0  0  0  0
   -8.6950   16.6850   -4.4820 C   0  0  0  0  0  0  0  0  0  0  0  0
   -8.2230   16.7180   -5.4650 H   0  0  0  0  0  0  0  0  0  0  0  0
   -9.5060   17.4130   -4.4620 H   0  0  0  0  0  0  0  0  0  0  0  0
   -9.2430   15.3790   -4.2590 O   0  0  0  0  0  0  0  0  0  0  0  0
   -8.5360   14.7290   -4.2720 H   0  0  0  0  0  0  0  0  0  0  0  0
   -7.0570   18.3960   -3.4700 C   0  0  2  0  0  0  0  0  0  0  0  0
   -6.6220   18.5320   -4.4630 H   0  0  0  0  0  0  0  0  0  0  0  0
   -2.2970   18.6550    0.5150 H   0  0  0  0  0  0  0  0  0  0  0  0
   -5.9660   18.5970   -2.4070 C   0  0  2  0  0  0  0  0  0  0  0  0
   -6.4250   18.6130   -1.4160 H   0  0  0  0  0  0  0  0  0  0  0  0
   -5.3310   19.8660   -2.6480 O   0  0  0  0  0  0  0  0  0  0  0  0
   -4.6490   20.0130   -1.9890 H   0  0  0  0  0  0  0  0  0  0  0  0
   -4.8950   17.4920   -2.4630 C   0  0  1  0  0  0  0  0  0  0  0  0
   -4.3280   17.6050   -3.3910 H   0  0  0  0  0  0  0  0  0  0  0  0
   -3.9850   17.6220   -1.3170 N   0  0  0  0  0  0  0  0  0  0  0  0
   -4.4250   17.6560   -0.4080 H   0  0  0  0  0  0  0  0  0  0  0  0
   -2.6430   17.6670   -1.3880 C   0  0  0  0  0  0  0  0  0  0  0  0
   -2.0060   17.6160   -2.4410 O   0  0  0  0  0  0  0  0  0  0  0  0
   -1.9260   17.7840   -0.0290 C   0  0  0  0  0  0  0  0  0  0  0  0
   -2.1080   16.8850    0.5620 H   0  0  0  0  0  0  0  0  0  0  0  0
   -0.8510   17.8970   -0.1780 H   0  0  0  0  0  0  0  0  0  0  0  0
   -8.1200   19.3900   -3.2300 O   0  0  0  0  0  0  0  0  0  0  0  0
   -8.5040   20.2110   -4.3890 C   0  0  2  0  0  0  0  0  0  0  0  0
   -8.6890   19.5590   -5.2450 H   0  0  0  0  0  0  0  0  0  0  0  0
   -7.4370   21.1740   -4.7330 O   0  0  0  0  0  0  0  0  0  0  0  0
   -7.7250   22.0960   -5.8530 C   0  0  2  0  0  0  0  0  0  0  0  0
   -7.9550   21.5090   -6.7450 H   0  0  0  0  0  0  0  0  0  0  0  0
   -6.4680   22.9330   -6.1180 C   0  0  0  0  0  0  0  0  0  0  0  0
   -6.1660   23.4720   -5.2190 H   0  0  0  0  0  0  0  0  0  0  0  0
   -6.6510   23.6580   -6.9110 H   0  0  0  0  0  0  0  0  0  0  0  0
   -5.4080   22.0600   -6.5290 O   0  0  0  0  0  0  0  0  0  0  0  0
   -5.2400   21.4140   -5.8380 H   0  0  0  0  0  0  0  0  0  0  0  0
   -8.9610   22.9260   -5.4620 C   0  0  2  0  0  0  0  0  0  0  0  0
   -8.7160   23.5440   -4.5950 H   0  0  0  0  0  0  0  0  0  0  0  0
  -13.3550   18.9970   -3.4820 H   0  0  0  0  0  0  0  0  0  0  0  0
  -10.1520   22.0190   -5.1110 C   0  0  2  0  0  0  0  0  0  0  0  0
  -10.4950   21.5070   -6.0130 H   0  0  0  0  0  0  0  0  0  0  0  0
  -11.2170   22.8490   -4.6120 O   0  0  0  0  0  0  0  0  0  0  0  0
  -11.9730   22.3010   -4.3920 H   0  0  0  0  0  0  0  0  0  0  0  0
   -9.7870   20.9830   -4.0310 C   0  0  1  0  0  0  0  0  0  0  0  0
   -9.6140   21.5100   -3.0900 H   0  0  0  0  0  0  0  0  0  0  0  0
  -10.8910   20.0300   -3.8610 N   0  0  0  0  0  0  0  0  0  0  0  0
  -11.2190   19.5800   -4.7040 H   0  0  0  0  0  0  0  0  0  0  0  0
  -11.4600   19.6980   -2.6890 C   0  0  0  0  0  0  0  0  0  0  0  0
  -11.1250   20.1710   -1.6010 O   0  0  0  0  0  0  0  0  0  0  0  0
  -12.5870   18.6530   -2.7870 C   0  0  0  0  0  0  0  0  0  0  0  0
  -12.1810   17.7040   -3.1410 H   0  0  0  0  0  0  0  0  0  0  0  0
  -13.0450   18.4970   -1.8090 H   0  0  0  0  0  0  0  0  0  0  0  0
   -9.3430   23.7710   -6.6090 O   0  0  0  0  0  0  0  0  0  0  0  0
   -9.1090   25.2140   -6.4350 C   0  0  2  0  0  0  0  0  0  0  0  0
   -8.1020   25.3690   -6.0460 H   0  0  0  0  0  0  0  0  0  0  0  0
  -10.0880   25.8000   -5.5000 O   0  0  0  0  0  0  0  0  0  0  0  0
   -9.9490   27.2490   -5.2380 C   0  0  2  0  0  0  0  0  0  0  0  0
   -8.9510   27.4340   -4.8320 H   0  0  0  0  0  0  0  0  0  0  0  0
  -10.9980   27.6370   -4.1870 C   0  0  0  0  0  0  0  0  0  0  0  0
  -12.0000   27.3740   -4.5270 H   0  0  0  0  0  0  0  0  0  0  0  0
  -10.9680   28.7100   -3.9960 H   0  0  0  0  0  0  0  0  0  0  0  0
  -10.7110   26.9410   -2.9660 O   0  0  0  0  0  0  0  0  0  0  0  0
  -10.7320   25.9950   -3.1250 H   0  0  0  0  0  0  0  0  0  0  0  0
  -10.0990   27.9940   -6.5790 C   0  0  1  0  0  0  0  0  0  0  0  0
  -11.1350   27.9290   -6.9180 H   0  0  0  0  0  0  0  0  0  0  0  0
   -9.7580   29.3740   -6.3560 O   0  0  0  0  0  0  0  0  0  0  0  0
   -9.8480   29.8620   -7.1770 H   0  0  0  0  0  0  0  0  0  0  0  0
   -9.1550   27.4410   -7.6640 C   0  0  2  0  0  0  0  0  0  0  0  0
   -8.1250   27.7180   -7.4270 H   0  0  0  0  0  0  0  0  0  0  0  0
   -9.5210   28.0310   -8.9260 O   0  0  0  0  0  0  0  0  0  0  0  0
   -8.9410   27.6980   -9.6150 H   0  0  0  0  0  0  0  0  0  0  0  0
   -9.2530   25.9090   -7.8000 C   0  0  1  0  0  0  0  0  0  0  0  0
  -10.2330   25.6550   -8.2100 H   0  0  0  0  0  0  0  0  0  0  0  0
   -8.2030   25.4200   -8.7050 N   0  0  0  0  0  0  0  0  0  0  0  0
   -7.2660   25.7410   -8.5070 H   0  0  0  0  0  0  0  0  0  0  0  0
   -8.3930   24.5680   -9.7280 C   0  0  0  0  0  0  0  0  0  0  0  0
   -9.4890   24.0980  -10.0410 O   0  0  0  0  0  0  0  0  0  0  0  0
   -7.1170   24.1960  -10.5070 C   0  0  0  0  0  0  0  0  0  0  0  0
   -6.4270   23.6640   -9.8510 H   0  0  0  0  0  0  0  0  0  0  0  0
   -7.3650   23.5530  -11.3530 H   0  0  0  0  0  0  0  0  0  0  0  0
   -6.6330   25.0990  -10.8830 H   0  0  0  0  0  0  0  0  0  0  0  0
  2  1  1  0  0  0  0
  3  4  1  6  0  0  0
  3  2  1  0  0  0  0
  3  5  1  0  0  0  0
  6  7  1  6  0  0  0
  6  5  1  0  0  0  0
  6  8  1  0  0  0  0
  8  9  1  0  0  0  0
  8 11  1  0  0  0  0
 10  8  1  0  0  0  0
 11 12  1  0  0  0  0
 13 14  1  1  0  0  0
 13  6  1  0  0  0  0
 15 26  1  0  0  0  0
 16 17  1  6  0  0  0
 16 20  1  0  0  0  0
 16 13  1  0  0  0  0
 18 16  1  0  0  0  0
 19 18  1  0  0  0  0
 20 21  1  1  0  0  0
 20  3  1  0  0  0  0
 22 20  1  0  0  0  0
 23 22  1  0  0  0  0
 24 25  2  0  0  0  0
 24 22  1  0  0  0  0
 26 27  1  0  0  0  0
 26 24  1  0  0  0  0
 28 26  1  0  0  0  0
 29 30  1  0  0  0  0
 29 13  1  0  0  0  0
 30 31  1  1  0  0  0
 32 33  1  0  0  0  0
 32 30  1  0  0  0  0
 33 34  1  1  0  0  0
 35 37  1  0  0  0  0
 35 38  1  0  0  0  0
 35 33  1  0  0  0  0
 36 35  1  0  0  0  0
 39 38  1  0  0  0  0
 40 41  1  6  0  0  0
 40 33  1  0  0  0  0
 40 56  1  0  0  0  0
 40 43  1  0  0  0  0
 43 44  1  1  0  0  0
 45 43  1  0  0  0  0
 45 46  1  0  0  0  0
 47 48  1  6  0  0  0
 47 30  1  0  0  0  0
 47 43  1  0  0  0  0
 47 49  1  0  0  0  0
 49 50  1  0  0  0  0
 51 49  1  0  0  0  0
 51 53  1  0  0  0  0
 52 51  2  0  0  0  0
 53 42  1  0  0  0  0
 53 54  1  0  0  0  0
 55 53  1  0  0  0  0
 57 58  1  6  0  0  0
 57 74  1  0  0  0  0
 57 56  1  0  0  0  0
 59 57  1  0  0  0  0
 60 61  1  6  0  0  0
 60 67  1  0  0  0  0
 60 59  1  0  0  0  0
 62 60  1  0  0  0  0
 62 63  1  0  0  0  0
 64 62  1  0  0  0  0
 65 62  1  0  0  0  0
 65 66  1  0  0  0  0
 67 70  1  0  0  0  0
 67 68  1  1  0  0  0
 69 80  1  0  0  0  0
 70 71  1  6  0  0  0
 70 72  1  0  0  0  0
 70 74  1  0  0  0  0
 72 73  1  0  0  0  0
 74 76  1  0  0  0  0
 74 75  1  1  0  0  0
 76 78  1  0  0  0  0
 77 76  1  0  0  0  0
 78 79  2  0  0  0  0
 80 78  1  0  0  0  0
 80 82  1  0  0  0  0
 81 80  1  0  0  0  0
 83 84  1  0  0  0  0
 83 67  1  0  0  0  0
 84 85  1  1  0  0  0
 84 86  1  0  0  0  0
 86 87  1  0  0  0  0
 87 88  1  1  0  0  0
 87 89  1  0  0  0  0
 89 91  1  0  0  0  0
 89 92  1  0  0  0  0
 90 89  1  0  0  0  0
 93 92  1  0  0  0  0
 94 95  1  6  0  0  0
 94 96  1  0  0  0  0
 94 87  1  0  0  0  0
 97 96  1  0  0  0  0
 98 99  1  1  0  0  0
 98 94  1  0  0  0  0
100 98  1  0  0  0  0
101100  1  0  0  0  0
102103  1  6  0  0  0
102 98  1  0  0  0  0
102 84  1  0  0  0  0
104105  1  0  0  0  0
104102  1  0  0  0  0
106104  1  0  0  0  0
107106  2  0  0  0  0
108109  1  0  0  0  0
108106  1  0  0  0  0
110108  1  0  0  0  0
111108  1  0  0  0  0
M  END
