C:\Users\eirik\OneDrive - Norwegian University of Life Sciences\Documents\Masteroppgave\glycam\NAG_kitin\pdb\DGlcpNAcb1-4DGlcpNAcb1-OH_structure_min-gas.pdb DGlcpNAcb1-4DGlcpNAcb1-OH_structure_min-gas.pdb
 OpenBabel01122616273D

 57 58  0  0  1  0  0  0  0  0999 V2000
   -3.3740    9.3910   -1.3560 H   0  0  0  0  0  0  0  0  0  0  0  0
   -3.9070    9.6670   -2.1050 O   0  0  0  0  0  0  0  0  0  0  0  0
   -3.6850   11.0610   -2.3620 C   0  0  2  0  0  0  0  0  0  0  0  0
   -2.6290   11.2090   -2.5910 H   0  0  0  0  0  0  0  0  0  0  0  0
   -4.0330   11.8720   -1.1790 O   0  0  0  0  0  0  0  0  0  0  0  0
   -3.8790   13.3380   -1.3210 C   0  0  2  0  0  0  0  0  0  0  0  0
   -2.8380   13.5590   -1.5690 H   0  0  0  0  0  0  0  0  0  0  0  0
   -4.2220   13.9890    0.0250 C   0  0  0  0  0  0  0  0  0  0  0  0
   -5.2270   13.7090    0.3440 H   0  0  0  0  0  0  0  0  0  0  0  0
   -4.1740   15.0750   -0.0530 H   0  0  0  0  0  0  0  0  0  0  0  0
   -3.2710   13.5560    1.0060 O   0  0  0  0  0  0  0  0  0  0  0  0
   -3.3070   12.6000    1.0860 H   0  0  0  0  0  0  0  0  0  0  0  0
   -4.7800   13.8040   -2.4790 C   0  0  2  0  0  0  0  0  0  0  0  0
   -5.8270   13.6610   -2.1960 H   0  0  0  0  0  0  0  0  0  0  0  0
   -3.7420   10.2560   -7.4130 H   0  0  0  0  0  0  0  0  0  0  0  0
   -4.4940   13.0220   -3.7710 C   0  0  2  0  0  0  0  0  0  0  0  0
   -3.5050   13.2950   -4.1460 H   0  0  0  0  0  0  0  0  0  0  0  0
   -5.4830   13.3950   -4.7480 O   0  0  0  0  0  0  0  0  0  0  0  0
   -5.3200   12.9200   -5.5660 H   0  0  0  0  0  0  0  0  0  0  0  0
   -4.5610   11.4970   -3.5550 C   0  0  1  0  0  0  0  0  0  0  0  0
   -5.5960   11.2230   -3.3370 H   0  0  0  0  0  0  0  0  0  0  0  0
   -4.1190   10.8060   -4.7750 N   0  0  0  0  0  0  0  0  0  0  0  0
   -3.1410   10.9030   -5.0070 H   0  0  0  0  0  0  0  0  0  0  0  0
   -4.9100   10.0870   -5.5920 C   0  0  0  0  0  0  0  0  0  0  0  0
   -6.1170    9.9170   -5.4120 O   0  0  0  0  0  0  0  0  0  0  0  0
   -4.1940    9.4680   -6.8090 C   0  0  0  0  0  0  0  0  0  0  0  0
   -3.4150    8.7820   -6.4710 H   0  0  0  0  0  0  0  0  0  0  0  0
   -4.9050    8.9160   -7.4250 H   0  0  0  0  0  0  0  0  0  0  0  0
   -4.5000   15.2290   -2.7310 O   0  0  0  0  0  0  0  0  0  0  0  0
   -5.6020   16.1610   -2.4460 C   0  0  2  0  0  0  0  0  0  0  0  0
   -6.0420   15.9100   -1.4790 H   0  0  0  0  0  0  0  0  0  0  0  0
   -6.6420   16.0870   -3.4900 O   0  0  0  0  0  0  0  0  0  0  0  0
   -7.8040   16.9860   -3.3220 C   0  0  2  0  0  0  0  0  0  0  0  0
   -8.2850   16.7570   -2.3680 H   0  0  0  0  0  0  0  0  0  0  0  0
   -8.7870   16.6980   -4.4640 C   0  0  0  0  0  0  0  0  0  0  0  0
   -8.3020   16.8280   -5.4320 H   0  0  0  0  0  0  0  0  0  0  0  0
   -9.6420   17.3730   -4.4120 H   0  0  0  0  0  0  0  0  0  0  0  0
   -9.2560   15.3480   -4.3440 O   0  0  0  0  0  0  0  0  0  0  0  0
   -8.5100   14.7460   -4.3880 H   0  0  0  0  0  0  0  0  0  0  0  0
   -7.2850   18.4380   -3.2940 C   0  0  1  0  0  0  0  0  0  0  0  0
   -6.9310   18.7170   -4.2880 H   0  0  0  0  0  0  0  0  0  0  0  0
   -8.3840   19.2900   -2.9260 O   0  0  0  0  0  0  0  0  0  0  0  0
   -8.0880   20.2030   -2.9060 H   0  0  0  0  0  0  0  0  0  0  0  0
   -6.1620   18.6380   -2.2590 C   0  0  2  0  0  0  0  0  0  0  0  0
   -6.5800   18.5820   -1.2510 H   0  0  0  0  0  0  0  0  0  0  0  0
   -5.5900   19.9450   -2.4590 O   0  0  0  0  0  0  0  0  0  0  0  0
   -4.8870   20.0870   -1.8210 H   0  0  0  0  0  0  0  0  0  0  0  0
   -5.0390   17.5930   -2.4060 C   0  0  1  0  0  0  0  0  0  0  0  0
   -4.5090   17.7760   -3.3440 H   0  0  0  0  0  0  0  0  0  0  0  0
   -4.0980   17.7110   -1.2840 N   0  0  0  0  0  0  0  0  0  0  0  0
   -4.5120   17.7550   -0.3640 H   0  0  0  0  0  0  0  0  0  0  0  0
   -2.7570   17.7170   -1.3910 C   0  0  0  0  0  0  0  0  0  0  0  0
   -2.1500   17.6420   -2.4610 O   0  0  0  0  0  0  0  0  0  0  0  0
   -2.0000   17.8170   -0.0530 C   0  0  0  0  0  0  0  0  0  0  0  0
   -2.2020   16.9320    0.5520 H   0  0  0  0  0  0  0  0  0  0  0  0
   -0.9260   17.8840   -0.2310 H   0  0  0  0  0  0  0  0  0  0  0  0
   -2.3210   18.7070    0.4910 H   0  0  0  0  0  0  0  0  0  0  0  0
  2  1  1  0  0  0  0
  3  4  1  6  0  0  0
  3  2  1  0  0  0  0
  3  5  1  0  0  0  0
  6  7  1  6  0  0  0
  6  5  1  0  0  0  0
  6  8  1  0  0  0  0
  8  9  1  0  0  0  0
  8 11  1  0  0  0  0
 10  8  1  0  0  0  0
 11 12  1  0  0  0  0
 13 14  1  1  0  0  0
 13  6  1  0  0  0  0
 15 26  1  0  0  0  0
 16 17  1  6  0  0  0
 16 20  1  0  0  0  0
 16 13  1  0  0  0  0
 18 16  1  0  0  0  0
 19 18  1  0  0  0  0
 20 21  1  1  0  0  0
 20  3  1  0  0  0  0
 22 20  1  0  0  0  0
 23 22  1  0  0  0  0
 24 25  2  0  0  0  0
 24 22  1  0  0  0  0
 26 27  1  0  0  0  0
 26 24  1  0  0  0  0
 28 26  1  0  0  0  0
 29 13  1  0  0  0  0
 29 30  1  0  0  0  0
 30 48  1  0  0  0  0
 30 31  1  1  0  0  0
 32 33  1  0  0  0  0
 32 30  1  0  0  0  0
 33 40  1  0  0  0  0
 33 34  1  1  0  0  0
 35 37  1  0  0  0  0
 35 38  1  0  0  0  0
 35 33  1  0  0  0  0
 36 35  1  0  0  0  0
 39 38  1  0  0  0  0
 40 41  1  6  0  0  0
 40 42  1  0  0  0  0
 40 44  1  0  0  0  0
 42 43  1  0  0  0  0
 44 45  1  1  0  0  0
 46 44  1  0  0  0  0
 46 47  1  0  0  0  0
 48 49  1  6  0  0  0
 48 44  1  0  0  0  0
 48 50  1  0  0  0  0
 50 51  1  0  0  0  0
 52 50  1  0  0  0  0
 52 54  1  0  0  0  0
 53 52  2  0  0  0  0
 54 57  1  0  0  0  0
 54 55  1  0  0  0  0
 56 54  1  0  0  0  0
M  END
$$$$
C:\Users\eirik\OneDrive - Norwegian University of Life Sciences\Documents\Masteroppgave\glycam\NAG_kitin\pdb\DGlcpNAcb1-4DGlcpNAcb1-4DGlcpNAcb1-OH_structure_min-gas.pdb DGlcpNAcb1-4DGlcpNAcb1-4DGlcpNAcb1-OH_structure_min-gas.pdb
 OpenBabel01122616273D

 84 86  0  0  1  0  0  0  0  0999 V2000
   -3.5470    9.2900   -1.3060 H   0  0  0  0  0  0  0  0  0  0  0  0
   -4.0650    9.5840   -2.0590 O   0  0  0  0  0  0  0  0  0  0  0  0
   -3.8050   10.9730   -2.3060 C   0  0  2  0  0  0  0  0  0  0  0  0
   -2.7420   11.0960   -2.5190 H   0  0  0  0  0  0  0  0  0  0  0  0
   -4.1510   11.7870   -1.1240 O   0  0  0  0  0  0  0  0  0  0  0  0
   -3.9530   13.2480   -1.2570 C   0  0  2  0  0  0  0  0  0  0  0  0
   -2.9030   13.4400   -1.4890 H   0  0  0  0  0  0  0  0  0  0  0  0
   -4.2950   13.9040    0.0870 C   0  0  0  0  0  0  0  0  0  0  0  0
   -5.3120   13.6540    0.3910 H   0  0  0  0  0  0  0  0  0  0  0  0
   -4.2130   14.9890    0.0140 H   0  0  0  0  0  0  0  0  0  0  0  0
   -3.3710   13.4390    1.0790 O   0  0  0  0  0  0  0  0  0  0  0  0
   -3.4350   12.4840    1.1530 H   0  0  0  0  0  0  0  0  0  0  0  0
   -4.8240   13.7460   -2.4240 C   0  0  2  0  0  0  0  0  0  0  0  0
   -5.8780   13.6400   -2.1550 H   0  0  0  0  0  0  0  0  0  0  0  0
   -3.8060   10.2190   -7.3720 H   0  0  0  0  0  0  0  0  0  0  0  0
   -4.5460   12.9600   -3.7160 C   0  0  2  0  0  0  0  0  0  0  0  0
   -3.5470   13.2100   -4.0800 H   0  0  0  0  0  0  0  0  0  0  0  0
   -5.5160   13.3620   -4.7010 O   0  0  0  0  0  0  0  0  0  0  0  0
   -5.3550   12.8870   -5.5200 H   0  0  0  0  0  0  0  0  0  0  0  0
   -4.6520   11.4360   -3.5090 C   0  0  1  0  0  0  0  0  0  0  0  0
   -5.6970   11.1840   -3.3100 H   0  0  0  0  0  0  0  0  0  0  0  0
   -4.2060   10.7430   -4.7270 N   0  0  0  0  0  0  0  0  0  0  0  0
   -3.2220   10.8150   -4.9390 H   0  0  0  0  0  0  0  0  0  0  0  0
   -5.0000   10.0560   -5.5680 C   0  0  0  0  0  0  0  0  0  0  0  0
   -6.2150    9.9190   -5.4130 O   0  0  0  0  0  0  0  0  0  0  0  0
   -4.2780    9.4340   -6.7790 C   0  0  0  0  0  0  0  0  0  0  0  0
   -3.5160    8.7330   -6.4370 H   0  0  0  0  0  0  0  0  0  0  0  0
   -4.9900    8.8990   -7.4090 H   0  0  0  0  0  0  0  0  0  0  0  0
   -4.4900   15.1600   -2.6720 O   0  0  0  0  0  0  0  0  0  0  0  0
   -5.5570   16.1380   -2.4090 C   0  0  2  0  0  0  0  0  0  0  0  0
   -6.0010   15.9330   -1.4330 H   0  0  0  0  0  0  0  0  0  0  0  0
   -6.6080   16.0670   -3.4460 O   0  0  0  0  0  0  0  0  0  0  0  0
   -7.7040   17.0550   -3.3410 C   0  0  2  0  0  0  0  0  0  0  0  0
   -8.1880   16.9440   -2.3680 H   0  0  0  0  0  0  0  0  0  0  0  0
   -8.7260   16.7530   -4.4440 C   0  0  0  0  0  0  0  0  0  0  0  0
   -8.2530   16.7790   -5.4260 H   0  0  0  0  0  0  0  0  0  0  0  0
   -9.5330   17.4860   -4.4290 H   0  0  0  0  0  0  0  0  0  0  0  0
   -9.2830   15.4520   -4.2160 O   0  0  0  0  0  0  0  0  0  0  0  0
   -8.5810   14.7970   -4.2250 H   0  0  0  0  0  0  0  0  0  0  0  0
   -7.0760   18.4560   -3.4350 C   0  0  2  0  0  0  0  0  0  0  0  0
   -6.6250   18.5780   -4.4240 H   0  0  0  0  0  0  0  0  0  0  0  0
   -2.3260   18.6790    0.5690 H   0  0  0  0  0  0  0  0  0  0  0  0
   -5.9940   18.6530   -2.3620 C   0  0  2  0  0  0  0  0  0  0  0  0
   -6.4620   18.6700   -1.3750 H   0  0  0  0  0  0  0  0  0  0  0  0
   -5.3530   19.9200   -2.5970 O   0  0  0  0  0  0  0  0  0  0  0  0
   -4.6750   20.0640   -1.9320 H   0  0  0  0  0  0  0  0  0  0  0  0
   -4.9280   17.5440   -2.4140 C   0  0  1  0  0  0  0  0  0  0  0  0
   -4.3570   17.6560   -3.3390 H   0  0  0  0  0  0  0  0  0  0  0  0
   -4.0220   17.6690   -1.2640 N   0  0  0  0  0  0  0  0  0  0  0  0
   -4.4650   17.7180   -0.3580 H   0  0  0  0  0  0  0  0  0  0  0  0
   -2.6790   17.6860   -1.3290 C   0  0  0  0  0  0  0  0  0  0  0  0
   -2.0380   17.6130   -2.3800 O   0  0  0  0  0  0  0  0  0  0  0  0
   -1.9660   17.8010    0.0310 C   0  0  0  0  0  0  0  0  0  0  0  0
   -2.1620   16.9080    0.6260 H   0  0  0  0  0  0  0  0  0  0  0  0
   -0.8880   17.8970   -0.1140 H   0  0  0  0  0  0  0  0  0  0  0  0
   -8.1330   19.4640   -3.2230 O   0  0  0  0  0  0  0  0  0  0  0  0
   -8.4910   20.2620   -4.4060 C   0  0  2  0  0  0  0  0  0  0  0  0
   -8.6450   19.5930   -5.2550 H   0  0  0  0  0  0  0  0  0  0  0  0
   -7.4280   21.2300   -4.7350 O   0  0  0  0  0  0  0  0  0  0  0  0
   -7.6700   22.0870   -5.9160 C   0  0  2  0  0  0  0  0  0  0  0  0
   -7.8140   21.4440   -6.7870 H   0  0  0  0  0  0  0  0  0  0  0  0
   -6.4220   22.9520   -6.1300 C   0  0  0  0  0  0  0  0  0  0  0  0
   -6.1990   23.5360   -5.2360 H   0  0  0  0  0  0  0  0  0  0  0  0
   -6.5720   23.6400   -6.9630 H   0  0  0  0  0  0  0  0  0  0  0  0
   -5.3100   22.0980   -6.4300 O   0  0  0  0  0  0  0  0  0  0  0  0
   -5.1720   21.4860   -5.7030 H   0  0  0  0  0  0  0  0  0  0  0  0
   -8.9590   22.8950   -5.6630 C   0  0  1  0  0  0  0  0  0  0  0  0
   -8.7750   23.6390   -4.8850 H   0  0  0  0  0  0  0  0  0  0  0  0
   -9.3040   23.5650   -6.8880 O   0  0  0  0  0  0  0  0  0  0  0  0
  -10.1030   24.0810   -6.7550 H   0  0  0  0  0  0  0  0  0  0  0  0
  -10.1440   21.9960   -5.2630 C   0  0  2  0  0  0  0  0  0  0  0  0
  -10.4720   21.4170   -6.1290 H   0  0  0  0  0  0  0  0  0  0  0  0
  -11.2260   22.8410   -4.8270 O   0  0  0  0  0  0  0  0  0  0  0  0
  -11.9750   22.2970   -4.5750 H   0  0  0  0  0  0  0  0  0  0  0  0
   -9.7880   21.0350   -4.1120 C   0  0  1  0  0  0  0  0  0  0  0  0
   -9.6360   21.6190   -3.2010 H   0  0  0  0  0  0  0  0  0  0  0  0
  -10.8850   20.0800   -3.9010 N   0  0  0  0  0  0  0  0  0  0  0  0
  -11.2160   19.6000   -4.7250 H   0  0  0  0  0  0  0  0  0  0  0  0
  -11.4370   19.7800   -2.7120 C   0  0  0  0  0  0  0  0  0  0  0  0
  -11.0930   20.2880   -1.6430 O   0  0  0  0  0  0  0  0  0  0  0  0
  -12.5580   18.7250   -2.7660 C   0  0  0  0  0  0  0  0  0  0  0  0
  -12.1520   17.7720   -3.1110 H   0  0  0  0  0  0  0  0  0  0  0  0
  -12.9930   18.5840   -1.7750 H   0  0  0  0  0  0  0  0  0  0  0  0
  -13.3440   19.0500   -3.4500 H   0  0  0  0  0  0  0  0  0  0  0  0
  2  1  1  0  0  0  0
  3  4  1  6  0  0  0
  3  2  1  0  0  0  0
  3  5  1  0  0  0  0
  6  7  1  6  0  0  0
  6  5  1  0  0  0  0
  6  8  1  0  0  0  0
  8  9  1  0  0  0  0
  8 11  1  0  0  0  0
 10  8  1  0  0  0  0
 11 12  1  0  0  0  0
 13 14  1  1  0  0  0
 13  6  1  0  0  0  0
 15 26  1  0  0  0  0
 16 17  1  6  0  0  0
 16 20  1  0  0  0  0
 16 13  1  0  0  0  0
 18 16  1  0  0  0  0
 19 18  1  0  0  0  0
 20 21  1  1  0  0  0
 20  3  1  0  0  0  0
 22 20  1  0  0  0  0
 23 22  1  0  0  0  0
 24 25  2  0  0  0  0
 24 22  1  0  0  0  0
 26 27  1  0  0  0  0
 26 24  1  0  0  0  0
 28 26  1  0  0  0  0
 29 13  1  0  0  0  0
 29 30  1  0  0  0  0
 30 31  1  1  0  0  0
 32 33  1  0  0  0  0
 32 30  1  0  0  0  0
 33 34  1  1  0  0  0
 35 37  1  0  0  0  0
 35 38  1  0  0  0  0
 35 33  1  0  0  0  0
 36 35  1  0  0  0  0
 39 38  1  0  0  0  0
 40 41  1  6  0  0  0
 40 33  1  0  0  0  0
 40 56  1  0  0  0  0
 40 43  1  0  0  0  0
 43 44  1  1  0  0  0
 45 43  1  0  0  0  0
 45 46  1  0  0  0  0
 47 48  1  6  0  0  0
 47 30  1  0  0  0  0
 47 43  1  0  0  0  0
 47 49  1  0  0  0  0
 49 50  1  0  0  0  0
 51 49  1  0  0  0  0
 51 53  1  0  0  0  0
 52 51  2  0  0  0  0
 53 42  1  0  0  0  0
 53 54  1  0  0  0  0
 55 53  1  0  0  0  0
 57 58  1  6  0  0  0
 57 75  1  0  0  0  0
 57 56  1  0  0  0  0
 59 57  1  0  0  0  0
 60 61  1  6  0  0  0
 60 67  1  0  0  0  0
 60 59  1  0  0  0  0
 62 60  1  0  0  0  0
 62 63  1  0  0  0  0
 64 62  1  0  0  0  0
 65 62  1  0  0  0  0
 65 66  1  0  0  0  0
 67 71  1  0  0  0  0
 67 68  1  1  0  0  0
 69 70  1  0  0  0  0
 69 67  1  0  0  0  0
 71 72  1  6  0  0  0
 71 73  1  0  0  0  0
 71 75  1  0  0  0  0
 73 74  1  0  0  0  0
 75 77  1  0  0  0  0
 75 76  1  1  0  0  0
 77 79  1  0  0  0  0
 78 77  1  0  0  0  0
 79 80  2  0  0  0  0
 81 79  1  0  0  0  0
 81 83  1  0  0  0  0
 82 81  1  0  0  0  0
 84 81  1  0  0  0  0
M  END
$$$$
C:\Users\eirik\OneDrive - Norwegian University of Life Sciences\Documents\Masteroppgave\glycam\NAG_kitin\pdb\DGlcpNAcb1-4DGlcpNAcb1-4DGlcpNAcb1-4DGlcpNAcb1-OH_structure_min-gas.pdb DGlcpNAcb1-4DGlcpNAcb1-4DGlcpNAcb1-4DGlcpNAcb1-OH_structure_min-gas.pdb
 OpenBabel01122616273D

111114  0  0  1  0  0  0  0  0999 V2000
   -3.5190    9.2440   -1.3080 H   0  0  0  0  0  0  0  0  0  0  0  0
   -4.0360    9.5340   -2.0630 O   0  0  0  0  0  0  0  0  0  0  0  0
   -3.7720   10.9210   -2.3190 C   0  0  2  0  0  0  0  0  0  0  0  0
   -2.7090   11.0400   -2.5320 H   0  0  0  0  0  0  0  0  0  0  0  0
   -4.1160   11.7430   -1.1410 O   0  0  0  0  0  0  0  0  0  0  0  0
   -3.9160   13.2030   -1.2830 C   0  0  2  0  0  0  0  0  0  0  0  0
   -2.8650   13.3910   -1.5160 H   0  0  0  0  0  0  0  0  0  0  0  0
   -4.2580   13.8680    0.0560 C   0  0  0  0  0  0  0  0  0  0  0  0
   -5.2750   13.6210    0.3610 H   0  0  0  0  0  0  0  0  0  0  0  0
   -4.1740   14.9520   -0.0220 H   0  0  0  0  0  0  0  0  0  0  0  0
   -3.3350   13.4060    1.0530 O   0  0  0  0  0  0  0  0  0  0  0  0
   -3.4030   12.4520    1.1330 H   0  0  0  0  0  0  0  0  0  0  0  0
   -4.7860   13.6940   -2.4530 C   0  0  2  0  0  0  0  0  0  0  0  0
   -5.8410   13.5900   -2.1840 H   0  0  0  0  0  0  0  0  0  0  0  0
   -3.7690   10.1440   -7.3800 H   0  0  0  0  0  0  0  0  0  0  0  0
   -4.5090   12.9000   -3.7400 C   0  0  2  0  0  0  0  0  0  0  0  0
   -3.5090   13.1460   -4.1050 H   0  0  0  0  0  0  0  0  0  0  0  0
   -5.4770   13.2990   -4.7290 O   0  0  0  0  0  0  0  0  0  0  0  0
   -5.3170   12.8180   -5.5440 H   0  0  0  0  0  0  0  0  0  0  0  0
   -4.6190   11.3790   -3.5250 C   0  0  1  0  0  0  0  0  0  0  0  0
   -5.6640   11.1310   -3.3230 H   0  0  0  0  0  0  0  0  0  0  0  0
   -4.1740   10.6770   -4.7380 N   0  0  0  0  0  0  0  0  0  0  0  0
   -3.1880   10.7390   -4.9470 H   0  0  0  0  0  0  0  0  0  0  0  0
   -4.9720    9.9970   -5.5810 C   0  0  0  0  0  0  0  0  0  0  0  0
   -6.1890    9.8720   -5.4300 O   0  0  0  0  0  0  0  0  0  0  0  0
   -4.2520    9.3650   -6.7880 C   0  0  0  0  0  0  0  0  0  0  0  0
   -3.4990    8.6560   -6.4420 H   0  0  0  0  0  0  0  0  0  0  0  0
   -4.9670    8.8360   -7.4200 H   0  0  0  0  0  0  0  0  0  0  0  0
   -4.4510   15.1070   -2.7090 O   0  0  0  0  0  0  0  0  0  0  0  0
   -5.5200   16.0850   -2.4530 C   0  0  2  0  0  0  0  0  0  0  0  0
   -5.9640   15.8840   -1.4760 H   0  0  0  0  0  0  0  0  0  0  0  0
   -6.5700   16.0090   -3.4900 O   0  0  0  0  0  0  0  0  0  0  0  0
   -7.6730   16.9890   -3.3790 C   0  0  2  0  0  0  0  0  0  0  0  0
   -8.1550   16.8700   -2.4060 H   0  0  0  0  0  0  0  0  0  0  0  0
   -8.6950   16.6850   -4.4820 C   0  0  0  0  0  0  0  0  0  0  0  0
   -8.2230   16.7180   -5.4650 H   0  0  0  0  0  0  0  0  0  0  0  0
   -9.5060   17.4130   -4.4620 H   0  0  0  0  0  0  0  0  0  0  0  0
   -9.2430   15.3790   -4.2590 O   0  0  0  0  0  0  0  0  0  0  0  0
   -8.5360   14.7290   -4.2720 H   0  0  0  0  0  0  0  0  0  0  0  0
   -7.0570   18.3960   -3.4700 C   0  0  2  0  0  0  0  0  0  0  0  0
   -6.6220   18.5320   -4.4630 H   0  0  0  0  0  0  0  0  0  0  0  0
   -2.2970   18.6550    0.5150 H   0  0  0  0  0  0  0  0  0  0  0  0
   -5.9660   18.5970   -2.4070 C   0  0  2  0  0  0  0  0  0  0  0  0
   -6.4250   18.6130   -1.4160 H   0  0  0  0  0  0  0  0  0  0  0  0
   -5.3310   19.8660   -2.6480 O   0  0  0  0  0  0  0  0  0  0  0  0
   -4.6490   20.0130   -1.9890 H   0  0  0  0  0  0  0  0  0  0  0  0
   -4.8950   17.4920   -2.4630 C   0  0  1  0  0  0  0  0  0  0  0  0
   -4.3280   17.6050   -3.3910 H   0  0  0  0  0  0  0  0  0  0  0  0
   -3.9850   17.6220   -1.3170 N   0  0  0  0  0  0  0  0  0  0  0  0
   -4.4250   17.6560   -0.4080 H   0  0  0  0  0  0  0  0  0  0  0  0
   -2.6430   17.6670   -1.3880 C   0  0  0  0  0  0  0  0  0  0  0  0
   -2.0060   17.6160   -2.4410 O   0  0  0  0  0  0  0  0  0  0  0  0
   -1.9260   17.7840   -0.0290 C   0  0  0  0  0  0  0  0  0  0  0  0
   -2.1080   16.8850    0.5620 H   0  0  0  0  0  0  0  0  0  0  0  0
   -0.8510   17.8970   -0.1780 H   0  0  0  0  0  0  0  0  0  0  0  0
   -8.1200   19.3900   -3.2300 O   0  0  0  0  0  0  0  0  0  0  0  0
   -8.5040   20.2110   -4.3890 C   0  0  2  0  0  0  0  0  0  0  0  0
   -8.6890   19.5590   -5.2450 H   0  0  0  0  0  0  0  0  0  0  0  0
   -7.4370   21.1740   -4.7330 O   0  0  0  0  0  0  0  0  0  0  0  0
   -7.7250   22.0960   -5.8530 C   0  0  2  0  0  0  0  0  0  0  0  0
   -7.9550   21.5090   -6.7450 H   0  0  0  0  0  0  0  0  0  0  0  0
   -6.4680   22.9330   -6.1180 C   0  0  0  0  0  0  0  0  0  0  0  0
   -6.1660   23.4720   -5.2190 H   0  0  0  0  0  0  0  0  0  0  0  0
   -6.6510   23.6580   -6.9110 H   0  0  0  0  0  0  0  0  0  0  0  0
   -5.4080   22.0600   -6.5290 O   0  0  0  0  0  0  0  0  0  0  0  0
   -5.2400   21.4140   -5.8380 H   0  0  0  0  0  0  0  0  0  0  0  0
   -8.9610   22.9260   -5.4620 C   0  0  2  0  0  0  0  0  0  0  0  0
   -8.7160   23.5440   -4.5950 H   0  0  0  0  0  0  0  0  0  0  0  0
  -13.3550   18.9970   -3.4820 H   0  0  0  0  0  0  0  0  0  0  0  0
  -10.1520   22.0190   -5.1110 C   0  0  2  0  0  0  0  0  0  0  0  0
  -10.4950   21.5070   -6.0130 H   0  0  0  0  0  0  0  0  0  0  0  0
  -11.2170   22.8490   -4.6120 O   0  0  0  0  0  0  0  0  0  0  0  0
  -11.9730   22.3010   -4.3920 H   0  0  0  0  0  0  0  0  0  0  0  0
   -9.7870   20.9830   -4.0310 C   0  0  1  0  0  0  0  0  0  0  0  0
   -9.6140   21.5100   -3.0900 H   0  0  0  0  0  0  0  0  0  0  0  0
  -10.8910   20.0300   -3.8610 N   0  0  0  0  0  0  0  0  0  0  0  0
  -11.2190   19.5800   -4.7040 H   0  0  0  0  0  0  0  0  0  0  0  0
  -11.4600   19.6980   -2.6890 C   0  0  0  0  0  0  0  0  0  0  0  0
  -11.1250   20.1710   -1.6010 O   0  0  0  0  0  0  0  0  0  0  0  0
  -12.5870   18.6530   -2.7870 C   0  0  0  0  0  0  0  0  0  0  0  0
  -12.1810   17.7040   -3.1410 H   0  0  0  0  0  0  0  0  0  0  0  0
  -13.0450   18.4970   -1.8090 H   0  0  0  0  0  0  0  0  0  0  0  0
   -9.3430   23.7710   -6.6090 O   0  0  0  0  0  0  0  0  0  0  0  0
   -9.1090   25.2140   -6.4350 C   0  0  2  0  0  0  0  0  0  0  0  0
   -8.1020   25.3690   -6.0460 H   0  0  0  0  0  0  0  0  0  0  0  0
  -10.0880   25.8000   -5.5000 O   0  0  0  0  0  0  0  0  0  0  0  0
   -9.9490   27.2490   -5.2380 C   0  0  2  0  0  0  0  0  0  0  0  0
   -8.9510   27.4340   -4.8320 H   0  0  0  0  0  0  0  0  0  0  0  0
  -10.9980   27.6370   -4.1870 C   0  0  0  0  0  0  0  0  0  0  0  0
  -12.0000   27.3740   -4.5270 H   0  0  0  0  0  0  0  0  0  0  0  0
  -10.9680   28.7100   -3.9960 H   0  0  0  0  0  0  0  0  0  0  0  0
  -10.7110   26.9410   -2.9660 O   0  0  0  0  0  0  0  0  0  0  0  0
  -10.7320   25.9950   -3.1250 H   0  0  0  0  0  0  0  0  0  0  0  0
  -10.0990   27.9940   -6.5790 C   0  0  1  0  0  0  0  0  0  0  0  0
  -11.1350   27.9290   -6.9180 H   0  0  0  0  0  0  0  0  0  0  0  0
   -9.7580   29.3740   -6.3560 O   0  0  0  0  0  0  0  0  0  0  0  0
   -9.8480   29.8620   -7.1770 H   0  0  0  0  0  0  0  0  0  0  0  0
   -9.1550   27.4410   -7.6640 C   0  0  2  0  0  0  0  0  0  0  0  0
   -8.1250   27.7180   -7.4270 H   0  0  0  0  0  0  0  0  0  0  0  0
   -9.5210   28.0310   -8.9260 O   0  0  0  0  0  0  0  0  0  0  0  0
   -8.9410   27.6980   -9.6150 H   0  0  0  0  0  0  0  0  0  0  0  0
   -9.2530   25.9090   -7.8000 C   0  0  1  0  0  0  0  0  0  0  0  0
  -10.2330   25.6550   -8.2100 H   0  0  0  0  0  0  0  0  0  0  0  0
   -8.2030   25.4200   -8.7050 N   0  0  0  0  0  0  0  0  0  0  0  0
   -7.2660   25.7410   -8.5070 H   0  0  0  0  0  0  0  0  0  0  0  0
   -8.3930   24.5680   -9.7280 C   0  0  0  0  0  0  0  0  0  0  0  0
   -9.4890   24.0980  -10.0410 O   0  0  0  0  0  0  0  0  0  0  0  0
   -7.1170   24.1960  -10.5070 C   0  0  0  0  0  0  0  0  0  0  0  0
   -6.4270   23.6640   -9.8510 H   0  0  0  0  0  0  0  0  0  0  0  0
   -7.3650   23.5530  -11.3530 H   0  0  0  0  0  0  0  0  0  0  0  0
   -6.6330   25.0990  -10.8830 H   0  0  0  0  0  0  0  0  0  0  0  0
  2  1  1  0  0  0  0
  3  4  1  6  0  0  0
  3  2  1  0  0  0  0
  3  5  1  0  0  0  0
  6  7  1  6  0  0  0
  6  5  1  0  0  0  0
  6  8  1  0  0  0  0
  8  9  1  0  0  0  0
  8 11  1  0  0  0  0
 10  8  1  0  0  0  0
 11 12  1  0  0  0  0
 13 14  1  1  0  0  0
 13  6  1  0  0  0  0
 15 26  1  0  0  0  0
 16 17  1  6  0  0  0
 16 20  1  0  0  0  0
 16 13  1  0  0  0  0
 18 16  1  0  0  0  0
 19 18  1  0  0  0  0
 20 21  1  1  0  0  0
 20  3  1  0  0  0  0
 22 20  1  0  0  0  0
 23 22  1  0  0  0  0
 24 25  2  0  0  0  0
 24 22  1  0  0  0  0
 26 27  1  0  0  0  0
 26 24  1  0  0  0  0
 28 26  1  0  0  0  0
 29 30  1  0  0  0  0
 29 13  1  0  0  0  0
 30 31  1  1  0  0  0
 32 33  1  0  0  0  0
 32 30  1  0  0  0  0
 33 34  1  1  0  0  0
 35 37  1  0  0  0  0
 35 38  1  0  0  0  0
 35 33  1  0  0  0  0
 36 35  1  0  0  0  0
 39 38  1  0  0  0  0
 40 41  1  6  0  0  0
 40 33  1  0  0  0  0
 40 56  1  0  0  0  0
 40 43  1  0  0  0  0
 43 44  1  1  0  0  0
 45 43  1  0  0  0  0
 45 46  1  0  0  0  0
 47 48  1  6  0  0  0
 47 30  1  0  0  0  0
 47 43  1  0  0  0  0
 47 49  1  0  0  0  0
 49 50  1  0  0  0  0
 51 49  1  0  0  0  0
 51 53  1  0  0  0  0
 52 51  2  0  0  0  0
 53 42  1  0  0  0  0
 53 54  1  0  0  0  0
 55 53  1  0  0  0  0
 57 58  1  6  0  0  0
 57 74  1  0  0  0  0
 57 56  1  0  0  0  0
 59 57  1  0  0  0  0
 60 61  1  6  0  0  0
 60 67  1  0  0  0  0
 60 59  1  0  0  0  0
 62 60  1  0  0  0  0
 62 63  1  0  0  0  0
 64 62  1  0  0  0  0
 65 62  1  0  0  0  0
 65 66  1  0  0  0  0
 67 70  1  0  0  0  0
 67 68  1  1  0  0  0
 69 80  1  0  0  0  0
 70 71  1  6  0  0  0
 70 72  1  0  0  0  0
 70 74  1  0  0  0  0
 72 73  1  0  0  0  0
 74 76  1  0  0  0  0
 74 75  1  1  0  0  0
 76 78  1  0  0  0  0
 77 76  1  0  0  0  0
 78 79  2  0  0  0  0
 80 78  1  0  0  0  0
 80 82  1  0  0  0  0
 81 80  1  0  0  0  0
 83 84  1  0  0  0  0
 83 67  1  0  0  0  0
 84 85  1  1  0  0  0
 84 86  1  0  0  0  0
 86 87  1  0  0  0  0
 87 88  1  1  0  0  0
 87 89  1  0  0  0  0
 89 91  1  0  0  0  0
 89 92  1  0  0  0  0
 90 89  1  0  0  0  0
 93 92  1  0  0  0  0
 94 95  1  6  0  0  0
 94 96  1  0  0  0  0
 94 87  1  0  0  0  0
 97 96  1  0  0  0  0
 98 99  1  1  0  0  0
 98 94  1  0  0  0  0
100 98  1  0  0  0  0
101100  1  0  0  0  0
102103  1  6  0  0  0
102 98  1  0  0  0  0
102 84  1  0  0  0  0
104105  1  0  0  0  0
104102  1  0  0  0  0
106104  1  0  0  0  0
107106  2  0  0  0  0
108109  1  0  0  0  0
108106  1  0  0  0  0
110108  1  0  0  0  0
111108  1  0  0  0  0
M  END
$$$$
C:\Users\eirik\OneDrive - Norwegian University of Life Sciences\Documents\Masteroppgave\glycam\NAG_kitin\pdb\DGlcpNAcb1-4DGlcpNAcb1-4DGlcpNAcb1-4DGlcpNAcb1-4DGlcpNAcb1-OH_structure_min-gas.pdb DGlcpNAcb1-4DGlcpNAcb1-4DGlcpNAcb1-4DGlcpNAcb1-4DGlcpNAcb1-OH_structure_min-gas.pdb
 OpenBabel01122616273D

138142  0  0  1  0  0  0  0  0999 V2000
   -3.5040    9.1900   -1.3140 H   0  0  0  0  0  0  0  0  0  0  0  0
   -4.0220    9.4860   -2.0670 O   0  0  0  0  0  0  0  0  0  0  0  0
   -3.7560   10.8750   -2.3130 C   0  0  2  0  0  0  0  0  0  0  0  0
   -2.6920   10.9930   -2.5270 H   0  0  0  0  0  0  0  0  0  0  0  0
   -4.0960   11.6890   -1.1300 O   0  0  0  0  0  0  0  0  0  0  0  0
   -3.8920   13.1500   -1.2620 C   0  0  2  0  0  0  0  0  0  0  0  0
   -2.8420   13.3370   -1.4950 H   0  0  0  0  0  0  0  0  0  0  0  0
   -4.2310   13.8070    0.0820 C   0  0  0  0  0  0  0  0  0  0  0  0
   -5.2490   13.5610    0.3860 H   0  0  0  0  0  0  0  0  0  0  0  0
   -4.1440   14.8910    0.0100 H   0  0  0  0  0  0  0  0  0  0  0  0
   -3.3090   13.3360    1.0740 O   0  0  0  0  0  0  0  0  0  0  0  0
   -3.3790   12.3820    1.1480 H   0  0  0  0  0  0  0  0  0  0  0  0
   -4.7630   13.6510   -2.4280 C   0  0  2  0  0  0  0  0  0  0  0  0
   -5.8170   13.5480   -2.1580 H   0  0  0  0  0  0  0  0  0  0  0  0
   -3.7600   10.1320   -7.3800 H   0  0  0  0  0  0  0  0  0  0  0  0
   -4.4890   12.8650   -3.7210 C   0  0  2  0  0  0  0  0  0  0  0  0
   -3.4900   13.1110   -4.0860 H   0  0  0  0  0  0  0  0  0  0  0  0
   -5.4580   13.2720   -4.7050 O   0  0  0  0  0  0  0  0  0  0  0  0
   -5.3000   12.7970   -5.5240 H   0  0  0  0  0  0  0  0  0  0  0  0
   -4.6020   11.3420   -3.5150 C   0  0  1  0  0  0  0  0  0  0  0  0
   -5.6480   11.0950   -3.3140 H   0  0  0  0  0  0  0  0  0  0  0  0
   -4.1610   10.6470   -4.7340 N   0  0  0  0  0  0  0  0  0  0  0  0
   -3.1750   10.7090   -4.9430 H   0  0  0  0  0  0  0  0  0  0  0  0
   -4.9610    9.9750   -5.5800 C   0  0  0  0  0  0  0  0  0  0  0  0
   -6.1790    9.8530   -5.4290 O   0  0  0  0  0  0  0  0  0  0  0  0
   -4.2440    9.3500   -6.7930 C   0  0  0  0  0  0  0  0  0  0  0  0
   -3.4920    8.6370   -6.4520 H   0  0  0  0  0  0  0  0  0  0  0  0
   -4.9610    8.8270   -7.4280 H   0  0  0  0  0  0  0  0  0  0  0  0
   -4.4250   15.0650   -2.6760 O   0  0  0  0  0  0  0  0  0  0  0  0
   -5.4900   16.0440   -2.4090 C   0  0  2  0  0  0  0  0  0  0  0  0
   -5.9310   15.8390   -1.4320 H   0  0  0  0  0  0  0  0  0  0  0  0
   -6.5450   15.9750   -3.4420 O   0  0  0  0  0  0  0  0  0  0  0  0
   -7.6440   16.9590   -3.3250 C   0  0  2  0  0  0  0  0  0  0  0  0
   -8.1220   16.8390   -2.3510 H   0  0  0  0  0  0  0  0  0  0  0  0
   -8.6700   16.6620   -4.4250 C   0  0  0  0  0  0  0  0  0  0  0  0
   -8.2020   16.6970   -5.4100 H   0  0  0  0  0  0  0  0  0  0  0  0
   -9.4790   17.3930   -4.4000 H   0  0  0  0  0  0  0  0  0  0  0  0
   -9.2220   15.3570   -4.2050 O   0  0  0  0  0  0  0  0  0  0  0  0
   -8.5180   14.7050   -4.2230 H   0  0  0  0  0  0  0  0  0  0  0  0
   -7.0220   18.3630   -3.4130 C   0  0  2  0  0  0  0  0  0  0  0  0
   -6.5870   18.4990   -4.4070 H   0  0  0  0  0  0  0  0  0  0  0  0
   -2.2630   18.6050    0.5650 H   0  0  0  0  0  0  0  0  0  0  0  0
   -5.9280   18.5570   -2.3520 C   0  0  2  0  0  0  0  0  0  0  0  0
   -6.3850   18.5700   -1.3600 H   0  0  0  0  0  0  0  0  0  0  0  0
   -5.2900   19.8250   -2.5890 O   0  0  0  0  0  0  0  0  0  0  0  0
   -4.6060   19.9680   -1.9310 H   0  0  0  0  0  0  0  0  0  0  0  0
   -4.8610   17.4490   -2.4170 C   0  0  1  0  0  0  0  0  0  0  0  0
   -4.2980   17.5640   -3.3460 H   0  0  0  0  0  0  0  0  0  0  0  0
   -3.9470   17.5720   -1.2730 N   0  0  0  0  0  0  0  0  0  0  0  0
   -4.3820   17.5840   -0.3620 H   0  0  0  0  0  0  0  0  0  0  0  0
   -2.6060   17.6410   -1.3500 C   0  0  0  0  0  0  0  0  0  0  0  0
   -1.9740   17.6190   -2.4080 O   0  0  0  0  0  0  0  0  0  0  0  0
   -1.8840   17.7470    0.0060 C   0  0  0  0  0  0  0  0  0  0  0  0
   -2.0510   16.8380    0.5850 H   0  0  0  0  0  0  0  0  0  0  0  0
   -0.8110   17.8760   -0.1460 H   0  0  0  0  0  0  0  0  0  0  0  0
   -8.0800   19.3620   -3.1700 O   0  0  0  0  0  0  0  0  0  0  0  0
   -8.4580   20.1850   -4.3290 C   0  0  2  0  0  0  0  0  0  0  0  0
   -8.6470   19.5350   -5.1850 H   0  0  0  0  0  0  0  0  0  0  0  0
   -7.3870   21.1430   -4.6730 O   0  0  0  0  0  0  0  0  0  0  0  0
   -7.6680   22.0580   -5.8000 C   0  0  2  0  0  0  0  0  0  0  0  0
   -7.8940   21.4640   -6.6890 H   0  0  0  0  0  0  0  0  0  0  0  0
   -6.4080   22.8920   -6.0650 C   0  0  0  0  0  0  0  0  0  0  0  0
   -6.1110   23.4370   -5.1690 H   0  0  0  0  0  0  0  0  0  0  0  0
   -6.5870   23.6110   -6.8650 H   0  0  0  0  0  0  0  0  0  0  0  0
   -5.3470   22.0140   -6.4650 O   0  0  0  0  0  0  0  0  0  0  0  0
   -5.1830   21.3740   -5.7690 H   0  0  0  0  0  0  0  0  0  0  0  0
   -8.9040   22.8930   -5.4240 C   0  0  2  0  0  0  0  0  0  0  0  0
   -8.6590   23.5300   -4.5700 H   0  0  0  0  0  0  0  0  0  0  0  0
  -13.3240   19.0090   -3.4290 H   0  0  0  0  0  0  0  0  0  0  0  0
  -10.0980   21.9960   -5.0600 C   0  0  2  0  0  0  0  0  0  0  0  0
  -10.4460   21.4780   -5.9560 H   0  0  0  0  0  0  0  0  0  0  0  0
  -11.1560   22.8360   -4.5650 O   0  0  0  0  0  0  0  0  0  0  0  0
  -11.9160   22.2930   -4.3390 H   0  0  0  0  0  0  0  0  0  0  0  0
   -9.7370   20.9660   -3.9730 C   0  0  1  0  0  0  0  0  0  0  0  0
   -9.5610   21.4970   -3.0350 H   0  0  0  0  0  0  0  0  0  0  0  0
  -10.8460   20.0180   -3.7980 N   0  0  0  0  0  0  0  0  0  0  0  0
  -11.1650   19.5540   -4.6370 H   0  0  0  0  0  0  0  0  0  0  0  0
  -11.4330   19.7130   -2.6280 C   0  0  0  0  0  0  0  0  0  0  0  0
  -11.1120   20.2070   -1.5450 O   0  0  0  0  0  0  0  0  0  0  0  0
  -12.5640   18.6720   -2.7220 C   0  0  0  0  0  0  0  0  0  0  0  0
  -12.1590   17.7160   -3.0580 H   0  0  0  0  0  0  0  0  0  0  0  0
  -13.0320   18.5320   -1.7460 H   0  0  0  0  0  0  0  0  0  0  0  0
   -9.2860   23.7140   -6.5880 O   0  0  0  0  0  0  0  0  0  0  0  0
   -9.0730   25.1630   -6.4490 C   0  0  2  0  0  0  0  0  0  0  0  0
   -8.0600   25.3440   -6.0860 H   0  0  0  0  0  0  0  0  0  0  0  0
  -10.0410   25.7510   -5.5000 O   0  0  0  0  0  0  0  0  0  0  0  0
   -9.9650   27.2160   -5.3130 C   0  0  2  0  0  0  0  0  0  0  0  0
   -8.9580   27.4780   -4.9800 H   0  0  0  0  0  0  0  0  0  0  0  0
  -10.9690   27.6110   -4.2230 C   0  0  0  0  0  0  0  0  0  0  0  0
  -11.9760   27.2910   -4.4920 H   0  0  0  0  0  0  0  0  0  0  0  0
  -10.9750   28.6920   -4.0830 H   0  0  0  0  0  0  0  0  0  0  0  0
  -10.5830   26.9890   -2.9900 O   0  0  0  0  0  0  0  0  0  0  0  0
  -10.5700   26.0360   -3.1040 H   0  0  0  0  0  0  0  0  0  0  0  0
  -10.2300   27.8710   -6.6800 C   0  0  2  0  0  0  0  0  0  0  0  0
  -11.2520   27.6420   -6.9930 H   0  0  0  0  0  0  0  0  0  0  0  0
   -6.5700   25.0960  -10.8720 H   0  0  0  0  0  0  0  0  0  0  0  0
   -9.2510   27.3520   -7.7460 C   0  0  2  0  0  0  0  0  0  0  0  0
   -8.2440   27.7040   -7.5130 H   0  0  0  0  0  0  0  0  0  0  0  0
   -9.6510   27.8870   -9.0210 O   0  0  0  0  0  0  0  0  0  0  0  0
   -9.0470   27.5780   -9.7010 H   0  0  0  0  0  0  0  0  0  0  0  0
   -9.2580   25.8140   -7.8320 C   0  0  1  0  0  0  0  0  0  0  0  0
  -10.2220   25.4930   -8.2320 H   0  0  0  0  0  0  0  0  0  0  0  0
   -8.1830   25.3600   -8.7250 N   0  0  0  0  0  0  0  0  0  0  0  0
   -7.2600   25.7140   -8.5180 H   0  0  0  0  0  0  0  0  0  0  0  0
   -8.3330   24.5040   -9.7500 C   0  0  0  0  0  0  0  0  0  0  0  0
   -9.4090   23.9990  -10.0770 O   0  0  0  0  0  0  0  0  0  0  0  0
   -7.0360   24.1760  -10.5160 C   0  0  0  0  0  0  0  0  0  0  0  0
   -6.3420   23.6520   -9.8570 H   0  0  0  0  0  0  0  0  0  0  0  0
   -7.2550   23.5390  -11.3740 H   0  0  0  0  0  0  0  0  0  0  0  0
  -10.0440   29.3280   -6.5490 O   0  0  0  0  0  0  0  0  0  0  0  0
  -11.2750   30.1310   -6.6330 C   0  0  2  0  0  0  0  0  0  0  0  0
  -12.0370   29.6850   -5.9910 H   0  0  0  0  0  0  0  0  0  0  0  0
  -11.7770   30.1870   -8.0190 O   0  0  0  0  0  0  0  0  0  0  0  0
  -13.0190   30.9610   -8.2280 C   0  0  2  0  0  0  0  0  0  0  0  0
  -13.8070   30.5280   -7.6080 H   0  0  0  0  0  0  0  0  0  0  0  0
  -13.4120   30.8250   -9.7050 C   0  0  0  0  0  0  0  0  0  0  0  0
  -12.6010   31.1630  -10.3520 H   0  0  0  0  0  0  0  0  0  0  0  0
  -14.2980   31.4220   -9.9220 H   0  0  0  0  0  0  0  0  0  0  0  0
  -13.7010   29.4490   -9.9840 O   0  0  0  0  0  0  0  0  0  0  0  0
  -12.9260   28.9140   -9.7940 H   0  0  0  0  0  0  0  0  0  0  0  0
  -12.7590   32.4130   -7.7790 C   0  0  1  0  0  0  0  0  0  0  0  0
  -12.0770   32.8950   -8.4820 H   0  0  0  0  0  0  0  0  0  0  0  0
  -14.0190   33.1080   -7.7880 O   0  0  0  0  0  0  0  0  0  0  0  0
  -13.8830   34.0180   -7.5140 H   0  0  0  0  0  0  0  0  0  0  0  0
  -12.1840   32.4900   -6.3510 C   0  0  2  0  0  0  0  0  0  0  0  0
  -12.9610   32.2230   -5.6310 H   0  0  0  0  0  0  0  0  0  0  0  0
  -11.7620   33.8450   -6.1060 O   0  0  0  0  0  0  0  0  0  0  0  0
  -11.4010   33.9110   -5.2190 H   0  0  0  0  0  0  0  0  0  0  0  0
  -10.9690   31.5620   -6.1590 C   0  0  1  0  0  0  0  0  0  0  0  0
  -10.1360   31.9470   -6.7530 H   0  0  0  0  0  0  0  0  0  0  0  0
  -10.5830   31.5320   -4.7420 N   0  0  0  0  0  0  0  0  0  0  0  0
  -11.3310   31.3590   -4.0850 H   0  0  0  0  0  0  0  0  0  0  0  0
   -9.3300   31.6710   -4.2730 C   0  0  0  0  0  0  0  0  0  0  0  0
   -8.3440   31.8610   -4.9870 O   0  0  0  0  0  0  0  0  0  0  0  0
   -9.1960   31.5700   -2.7420 C   0  0  0  0  0  0  0  0  0  0  0  0
   -9.4830   30.5710   -2.4110 H   0  0  0  0  0  0  0  0  0  0  0  0
   -8.1640   31.7570   -2.4400 H   0  0  0  0  0  0  0  0  0  0  0  0
   -9.8410   32.3080   -2.2610 H   0  0  0  0  0  0  0  0  0  0  0  0
  2  1  1  0  0  0  0
  3  4  1  6  0  0  0
  3  2  1  0  0  0  0
  3  5  1  0  0  0  0
  6  7  1  6  0  0  0
  6  5  1  0  0  0  0
  6  8  1  0  0  0  0
  8  9  1  0  0  0  0
  8 11  1  0  0  0  0
 10  8  1  0  0  0  0
 11 12  1  0  0  0  0
 13 14  1  1  0  0  0
 13  6  1  0  0  0  0
 15 26  1  0  0  0  0
 16 17  1  6  0  0  0
 16 20  1  0  0  0  0
 16 13  1  0  0  0  0
 18 16  1  0  0  0  0
 19 18  1  0  0  0  0
 20 21  1  1  0  0  0
 20  3  1  0  0  0  0
 22 20  1  0  0  0  0
 23 22  1  0  0  0  0
 24 25  2  0  0  0  0
 24 22  1  0  0  0  0
 26 27  1  0  0  0  0
 26 24  1  0  0  0  0
 28 26  1  0  0  0  0
 29 13  1  0  0  0  0
 29 30  1  0  0  0  0
 30 31  1  1  0  0  0
 32 33  1  0  0  0  0
 32 30  1  0  0  0  0
 33 34  1  1  0  0  0
 35 37  1  0  0  0  0
 35 38  1  0  0  0  0
 35 33  1  0  0  0  0
 36 35  1  0  0  0  0
 39 38  1  0  0  0  0
 40 41  1  6  0  0  0
 40 33  1  0  0  0  0
 40 56  1  0  0  0  0
 40 43  1  0  0  0  0
 43 44  1  1  0  0  0
 45 43  1  0  0  0  0
 45 46  1  0  0  0  0
 47 48  1  6  0  0  0
 47 30  1  0  0  0  0
 47 43  1  0  0  0  0
 47 49  1  0  0  0  0
 49 50  1  0  0  0  0
 51 49  1  0  0  0  0
 51 53  1  0  0  0  0
 52 51  2  0  0  0  0
 53 42  1  0  0  0  0
 53 54  1  0  0  0  0
 55 53  1  0  0  0  0
 57 58  1  6  0  0  0
 57 74  1  0  0  0  0
 57 56  1  0  0  0  0
 59 57  1  0  0  0  0
 60 61  1  6  0  0  0
 60 67  1  0  0  0  0
 60 59  1  0  0  0  0
 62 60  1  0  0  0  0
 62 63  1  0  0  0  0
 64 62  1  0  0  0  0
 65 62  1  0  0  0  0
 65 66  1  0  0  0  0
 67 70  1  0  0  0  0
 67 68  1  1  0  0  0
 69 80  1  0  0  0  0
 70 71  1  6  0  0  0
 70 72  1  0  0  0  0
 70 74  1  0  0  0  0
 72 73  1  0  0  0  0
 74 76  1  0  0  0  0
 74 75  1  1  0  0  0
 76 78  1  0  0  0  0
 77 76  1  0  0  0  0
 78 79  2  0  0  0  0
 80 78  1  0  0  0  0
 80 82  1  0  0  0  0
 81 80  1  0  0  0  0
 83 84  1  0  0  0  0
 83 67  1  0  0  0  0
 84 85  1  1  0  0  0
 84 86  1  0  0  0  0
 86 87  1  0  0  0  0
 87 88  1  1  0  0  0
 87 89  1  0  0  0  0
 89 91  1  0  0  0  0
 89 92  1  0  0  0  0
 90 89  1  0  0  0  0
 93 92  1  0  0  0  0
 94 95  1  6  0  0  0
 94110  1  0  0  0  0
 94 87  1  0  0  0  0
 96107  1  0  0  0  0
 97 98  1  1  0  0  0
 97 94  1  0  0  0  0
 99 97  1  0  0  0  0
100 99  1  0  0  0  0
101102  1  6  0  0  0
101 97  1  0  0  0  0
101 84  1  0  0  0  0
103104  1  0  0  0  0
103101  1  0  0  0  0
105103  1  0  0  0  0
106105  2  0  0  0  0
107108  1  0  0  0  0
107105  1  0  0  0  0
109107  1  0  0  0  0
111110  1  0  0  0  0
111129  1  0  0  0  0
111112  1  1  0  0  0
113111  1  0  0  0  0
114113  1  0  0  0  0
114121  1  0  0  0  0
114115  1  1  0  0  0
116114  1  0  0  0  0
117116  1  0  0  0  0
118116  1  0  0  0  0
119120  1  0  0  0  0
119116  1  0  0  0  0
121122  1  6  0  0  0
121125  1  0  0  0  0
123121  1  0  0  0  0
123124  1  0  0  0  0
125129  1  0  0  0  0
125127  1  0  0  0  0
125126  1  1  0  0  0
127128  1  0  0  0  0
129130  1  6  0  0  0
129131  1  0  0  0  0
131133  1  0  0  0  0
131132  1  0  0  0  0
133135  1  0  0  0  0
134133  2  0  0  0  0
135137  1  0  0  0  0
135136  1  0  0  0  0
135138  1  0  0  0  0
M  END
$$$$
C:\Users\eirik\OneDrive - Norwegian University of Life Sciences\Documents\Masteroppgave\glycam\NAG_kitin\pdb\DGlcpNAcb1-4DGlcpNAcb1-4DGlcpNAcb1-4DGlcpNAcb1-4DGlcpNAcb1-4DGlcpNAcb1-OH_structure_min-gas.pdb DGlcpNAcb1-4DGlcpNAcb1-4DGlcpNAcb1-4DGlcpNAcb1-4DGlcpNAcb1-4DGlcpNAcb1-OH_structure_min-gas.pdb
 OpenBabel01122616273D

165170  0  0  1  0  0  0  0  0999 V2000
   -3.4770    9.1470   -1.3130 H   0  0  0  0  0  0  0  0  0  0  0  0
   -3.9960    9.4450   -2.0640 O   0  0  0  0  0  0  0  0  0  0  0  0
   -3.7320   10.8340   -2.3070 C   0  0  2  0  0  0  0  0  0  0  0  0
   -2.6690   10.9540   -2.5220 H   0  0  0  0  0  0  0  0  0  0  0  0
   -4.0710   11.6440   -1.1200 O   0  0  0  0  0  0  0  0  0  0  0  0
   -3.8690   13.1060   -1.2480 C   0  0  2  0  0  0  0  0  0  0  0  0
   -2.8190   13.2960   -1.4820 H   0  0  0  0  0  0  0  0  0  0  0  0
   -4.2060   13.7580    0.0990 C   0  0  0  0  0  0  0  0  0  0  0  0
   -5.2240   13.5100    0.4030 H   0  0  0  0  0  0  0  0  0  0  0  0
   -4.1210   14.8430    0.0300 H   0  0  0  0  0  0  0  0  0  0  0  0
   -3.2830   13.2860    1.0880 O   0  0  0  0  0  0  0  0  0  0  0  0
   -3.3520   12.3310    1.1590 H   0  0  0  0  0  0  0  0  0  0  0  0
   -4.7420   13.6100   -2.4110 C   0  0  2  0  0  0  0  0  0  0  0  0
   -5.7960   13.5040   -2.1390 H   0  0  0  0  0  0  0  0  0  0  0  0
   -3.7430   10.1120   -7.3770 H   0  0  0  0  0  0  0  0  0  0  0  0
   -4.4690   12.8280   -3.7060 C   0  0  2  0  0  0  0  0  0  0  0  0
   -3.4700   13.0760   -4.0720 H   0  0  0  0  0  0  0  0  0  0  0  0
   -5.4390   13.2380   -4.6880 O   0  0  0  0  0  0  0  0  0  0  0  0
   -5.2820   12.7650   -5.5090 H   0  0  0  0  0  0  0  0  0  0  0  0
   -4.5810   11.3050   -3.5050 C   0  0  1  0  0  0  0  0  0  0  0  0
   -5.6260   11.0560   -3.3040 H   0  0  0  0  0  0  0  0  0  0  0  0
   -4.1420   10.6140   -4.7270 N   0  0  0  0  0  0  0  0  0  0  0  0
   -3.1550   10.6730   -4.9360 H   0  0  0  0  0  0  0  0  0  0  0  0
   -4.9440    9.9500   -5.5780 C   0  0  0  0  0  0  0  0  0  0  0  0
   -6.1620    9.8320   -5.4280 O   0  0  0  0  0  0  0  0  0  0  0  0
   -4.2300    9.3290   -6.7940 C   0  0  0  0  0  0  0  0  0  0  0  0
   -3.4800    8.6120   -6.4570 H   0  0  0  0  0  0  0  0  0  0  0  0
   -4.9480    8.8130   -7.4320 H   0  0  0  0  0  0  0  0  0  0  0  0
   -4.4070   15.0250   -2.6540 O   0  0  0  0  0  0  0  0  0  0  0  0
   -5.4770   15.9990   -2.3890 C   0  0  2  0  0  0  0  0  0  0  0  0
   -5.9160   15.7950   -1.4110 H   0  0  0  0  0  0  0  0  0  0  0  0
   -6.5310   15.9240   -3.4220 O   0  0  0  0  0  0  0  0  0  0  0  0
   -7.6360   16.9010   -3.3050 C   0  0  2  0  0  0  0  0  0  0  0  0
   -8.1130   16.7810   -2.3300 H   0  0  0  0  0  0  0  0  0  0  0  0
   -8.6610   16.5970   -4.4040 C   0  0  0  0  0  0  0  0  0  0  0  0
   -8.1940   16.6330   -5.3890 H   0  0  0  0  0  0  0  0  0  0  0  0
   -9.4740   17.3230   -4.3790 H   0  0  0  0  0  0  0  0  0  0  0  0
   -9.2060   15.2890   -4.1810 O   0  0  0  0  0  0  0  0  0  0  0  0
   -8.4970   14.6410   -4.1990 H   0  0  0  0  0  0  0  0  0  0  0  0
   -7.0210   18.3090   -3.3970 C   0  0  2  0  0  0  0  0  0  0  0  0
   -6.5870   18.4440   -4.3910 H   0  0  0  0  0  0  0  0  0  0  0  0
   -2.2660   18.5910    0.5800 H   0  0  0  0  0  0  0  0  0  0  0  0
   -5.9270   18.5100   -2.3370 C   0  0  2  0  0  0  0  0  0  0  0  0
   -6.3840   18.5240   -1.3450 H   0  0  0  0  0  0  0  0  0  0  0  0
   -5.2960   19.7810   -2.5780 O   0  0  0  0  0  0  0  0  0  0  0  0
   -4.6120   19.9290   -1.9210 H   0  0  0  0  0  0  0  0  0  0  0  0
   -4.8540   17.4080   -2.4000 C   0  0  1  0  0  0  0  0  0  0  0  0
   -4.2930   17.5230   -3.3300 H   0  0  0  0  0  0  0  0  0  0  0  0
   -3.9400   17.5380   -1.2580 N   0  0  0  0  0  0  0  0  0  0  0  0
   -4.3730   17.5400   -0.3450 H   0  0  0  0  0  0  0  0  0  0  0  0
   -2.6010   17.6280   -1.3370 C   0  0  0  0  0  0  0  0  0  0  0  0
   -1.9700   17.6210   -2.3960 O   0  0  0  0  0  0  0  0  0  0  0  0
   -1.8770   17.7390    0.0180 C   0  0  0  0  0  0  0  0  0  0  0  0
   -2.0320   16.8260    0.5950 H   0  0  0  0  0  0  0  0  0  0  0  0
   -0.8060   17.8810   -0.1350 H   0  0  0  0  0  0  0  0  0  0  0  0
   -8.0840   19.3020   -3.1560 O   0  0  0  0  0  0  0  0  0  0  0  0
   -8.4680   20.1190   -4.3180 C   0  0  2  0  0  0  0  0  0  0  0  0
   -8.6580   19.4640   -5.1700 H   0  0  0  0  0  0  0  0  0  0  0  0
   -7.4010   21.0780   -4.6700 O   0  0  0  0  0  0  0  0  0  0  0  0
   -7.6890   21.9890   -5.7990 C   0  0  2  0  0  0  0  0  0  0  0  0
   -7.9170   21.3920   -6.6850 H   0  0  0  0  0  0  0  0  0  0  0  0
   -6.4320   22.8250   -6.0710 C   0  0  0  0  0  0  0  0  0  0  0  0
   -6.1330   23.3740   -5.1780 H   0  0  0  0  0  0  0  0  0  0  0  0
   -6.6170   23.5410   -6.8720 H   0  0  0  0  0  0  0  0  0  0  0  0
   -5.3700   21.9490   -6.4720 O   0  0  0  0  0  0  0  0  0  0  0  0
   -5.2010   21.3120   -5.7740 H   0  0  0  0  0  0  0  0  0  0  0  0
   -8.9250   22.8210   -5.4190 C   0  0  2  0  0  0  0  0  0  0  0  0
   -8.6780   23.4570   -4.5650 H   0  0  0  0  0  0  0  0  0  0  0  0
  -13.3350   18.9380   -3.4170 H   0  0  0  0  0  0  0  0  0  0  0  0
  -10.1150   21.9210   -5.0500 C   0  0  2  0  0  0  0  0  0  0  0  0
  -10.4630   21.3990   -5.9450 H   0  0  0  0  0  0  0  0  0  0  0  0
  -11.1760   22.7590   -4.5560 O   0  0  0  0  0  0  0  0  0  0  0  0
  -11.9330   22.2150   -4.3270 H   0  0  0  0  0  0  0  0  0  0  0  0
   -9.7480   20.8960   -3.9610 C   0  0  1  0  0  0  0  0  0  0  0  0
   -9.5710   21.4310   -3.0260 H   0  0  0  0  0  0  0  0  0  0  0  0
  -10.8540   19.9460   -3.7800 N   0  0  0  0  0  0  0  0  0  0  0  0
  -11.1610   19.4640   -4.6120 H   0  0  0  0  0  0  0  0  0  0  0  0
  -11.4540   19.6630   -2.6110 C   0  0  0  0  0  0  0  0  0  0  0  0
  -11.1490   20.1810   -1.5340 O   0  0  0  0  0  0  0  0  0  0  0  0
  -12.5810   18.6150   -2.6970 C   0  0  0  0  0  0  0  0  0  0  0  0
  -12.1680   17.6560   -3.0130 H   0  0  0  0  0  0  0  0  0  0  0  0
  -13.0570   18.4910   -1.7240 H   0  0  0  0  0  0  0  0  0  0  0  0
   -9.3130   23.6420   -6.5810 O   0  0  0  0  0  0  0  0  0  0  0  0
   -9.1030   25.0910   -6.4360 C   0  0  2  0  0  0  0  0  0  0  0  0
   -8.0880   25.2720   -6.0760 H   0  0  0  0  0  0  0  0  0  0  0  0
  -10.0680   25.6730   -5.4820 O   0  0  0  0  0  0  0  0  0  0  0  0
   -9.9840   27.1360   -5.2820 C   0  0  2  0  0  0  0  0  0  0  0  0
   -8.9750   27.3890   -4.9470 H   0  0  0  0  0  0  0  0  0  0  0  0
  -10.9850   27.5280   -4.1880 C   0  0  0  0  0  0  0  0  0  0  0  0
  -11.9940   27.2160   -4.4600 H   0  0  0  0  0  0  0  0  0  0  0  0
  -10.9840   28.6080   -4.0390 H   0  0  0  0  0  0  0  0  0  0  0  0
  -10.6030   26.8930   -2.9610 O   0  0  0  0  0  0  0  0  0  0  0  0
  -10.5960   25.9410   -3.0820 H   0  0  0  0  0  0  0  0  0  0  0  0
  -10.2460   27.8060   -6.6420 C   0  0  2  0  0  0  0  0  0  0  0  0
  -11.2740   27.5970   -6.9500 H   0  0  0  0  0  0  0  0  0  0  0  0
   -6.6200   25.0620  -10.8760 H   0  0  0  0  0  0  0  0  0  0  0  0
   -9.2800   27.2860   -7.7190 C   0  0  2  0  0  0  0  0  0  0  0  0
   -8.2690   27.6320   -7.4930 H   0  0  0  0  0  0  0  0  0  0  0  0
   -9.6870   27.8310   -8.9870 O   0  0  0  0  0  0  0  0  0  0  0  0
   -9.0900   27.5230   -9.6740 H   0  0  0  0  0  0  0  0  0  0  0  0
   -9.2940   25.7490   -7.8140 C   0  0  1  0  0  0  0  0  0  0  0  0
  -10.2610   25.4330   -8.2110 H   0  0  0  0  0  0  0  0  0  0  0  0
   -8.2250   25.2980   -8.7160 N   0  0  0  0  0  0  0  0  0  0  0  0
   -7.2970   25.6340   -8.5020 H   0  0  0  0  0  0  0  0  0  0  0  0
   -8.3860   24.4680   -9.7620 C   0  0  0  0  0  0  0  0  0  0  0  0
   -9.4690   23.9860  -10.1000 O   0  0  0  0  0  0  0  0  0  0  0  0
   -7.0940   24.1410  -10.5340 C   0  0  0  0  0  0  0  0  0  0  0  0
   -6.4040   23.5990   -9.8850 H   0  0  0  0  0  0  0  0  0  0  0  0
   -7.3200   23.5200  -11.4030 H   0  0  0  0  0  0  0  0  0  0  0  0
  -10.0330   29.2580   -6.4970 O   0  0  0  0  0  0  0  0  0  0  0  0
  -11.2420   30.0920   -6.5830 C   0  0  2  0  0  0  0  0  0  0  0  0
  -12.0110   29.6810   -5.9270 H   0  0  0  0  0  0  0  0  0  0  0  0
  -11.7560   30.1360   -7.9670 O   0  0  0  0  0  0  0  0  0  0  0  0
  -12.9430   30.9880   -8.1960 C   0  0  2  0  0  0  0  0  0  0  0  0
  -13.7510   30.6530   -7.5420 H   0  0  0  0  0  0  0  0  0  0  0  0
  -13.3800   30.8150   -9.6560 C   0  0  0  0  0  0  0  0  0  0  0  0
  -12.5650   31.0670  -10.3350 H   0  0  0  0  0  0  0  0  0  0  0  0
  -14.2300   31.4590   -9.8790 H   0  0  0  0  0  0  0  0  0  0  0  0
  -13.7710   29.4510   -9.8640 O   0  0  0  0  0  0  0  0  0  0  0  0
  -13.0300   28.8730   -9.6660 H   0  0  0  0  0  0  0  0  0  0  0  0
  -12.5550   32.4290   -7.8220 C   0  0  2  0  0  0  0  0  0  0  0  0
  -11.7750   32.7780   -8.5040 H   0  0  0  0  0  0  0  0  0  0  0  0
   -9.8700   32.2830   -2.2100 H   0  0  0  0  0  0  0  0  0  0  0  0
  -12.0310   32.5090   -6.3790 C   0  0  2  0  0  0  0  0  0  0  0  0
  -12.8490   32.3030   -5.6850 H   0  0  0  0  0  0  0  0  0  0  0  0
  -11.5490   33.8450   -6.1490 O   0  0  0  0  0  0  0  0  0  0  0  0
  -11.2220   33.9170   -5.2490 H   0  0  0  0  0  0  0  0  0  0  0  0
  -10.8780   31.5180   -6.1310 C   0  0  1  0  0  0  0  0  0  0  0  0
  -10.0090   31.8460   -6.7070 H   0  0  0  0  0  0  0  0  0  0  0  0
  -10.5360   31.4980   -4.7030 N   0  0  0  0  0  0  0  0  0  0  0  0
  -11.3070   31.3500   -4.0670 H   0  0  0  0  0  0  0  0  0  0  0  0
   -9.2960   31.6230   -4.1970 C   0  0  0  0  0  0  0  0  0  0  0  0
   -8.2850   31.7860   -4.8820 O   0  0  0  0  0  0  0  0  0  0  0  0
   -9.2110   31.5400   -2.6610 C   0  0  0  0  0  0  0  0  0  0  0  0
   -9.5090   30.5440   -2.3290 H   0  0  0  0  0  0  0  0  0  0  0  0
   -8.1890   31.7300   -2.3280 H   0  0  0  0  0  0  0  0  0  0  0  0
  -13.7540   33.2820   -7.9280 O   0  0  0  0  0  0  0  0  0  0  0  0
  -13.7490   34.2390   -9.0460 C   0  0  2  0  0  0  0  0  0  0  0  0
  -13.4440   33.7230   -9.9580 H   0  0  0  0  0  0  0  0  0  0  0  0
  -12.8200   35.3550   -8.7830 O   0  0  0  0  0  0  0  0  0  0  0  0
  -12.7210   36.3800   -9.8440 C   0  0  2  0  0  0  0  0  0  0  0  0
  -12.4020   35.8930  -10.7690 H   0  0  0  0  0  0  0  0  0  0  0  0
  -11.6530   37.3940   -9.4160 C   0  0  0  0  0  0  0  0  0  0  0  0
  -11.8980   37.8270   -8.4460 H   0  0  0  0  0  0  0  0  0  0  0  0
  -11.5780   38.2010  -10.1450 H   0  0  0  0  0  0  0  0  0  0  0  0
  -10.3860   36.7270   -9.3330 O   0  0  0  0  0  0  0  0  0  0  0  0
  -10.4430   36.0120   -8.6940 H   0  0  0  0  0  0  0  0  0  0  0  0
  -14.1220   36.9920  -10.0490 C   0  0  1  0  0  0  0  0  0  0  0  0
  -14.3850   37.5980   -9.1800 H   0  0  0  0  0  0  0  0  0  0  0  0
  -14.0670   37.8340  -11.2150 O   0  0  0  0  0  0  0  0  0  0  0  0
  -14.9280   38.2310  -11.3630 H   0  0  0  0  0  0  0  0  0  0  0  0
  -15.2000   35.9180  -10.2890 C   0  0  2  0  0  0  0  0  0  0  0  0
  -15.0600   35.4740  -11.2770 H   0  0  0  0  0  0  0  0  0  0  0  0
  -16.4910   36.5550  -10.2390 O   0  0  0  0  0  0  0  0  0  0  0  0
  -17.1770   35.9000  -10.3880 H   0  0  0  0  0  0  0  0  0  0  0  0
  -15.1680   34.8070   -9.2210 C   0  0  1  0  0  0  0  0  0  0  0  0
  -15.4870   35.2290   -8.2650 H   0  0  0  0  0  0  0  0  0  0  0  0
  -16.0810   33.7210   -9.6030 N   0  0  0  0  0  0  0  0  0  0  0  0
  -15.9900   33.3810  -10.5490 H   0  0  0  0  0  0  0  0  0  0  0  0
  -16.9750   33.1330   -8.7880 C   0  0  0  0  0  0  0  0  0  0  0  0
  -17.1490   33.4530   -7.6100 O   0  0  0  0  0  0  0  0  0  0  0  0
  -17.7890   31.9950   -9.4310 C   0  0  0  0  0  0  0  0  0  0  0  0
  -17.1230   31.1790   -9.7130 H   0  0  0  0  0  0  0  0  0  0  0  0
  -18.5320   31.6170   -8.7270 H   0  0  0  0  0  0  0  0  0  0  0  0
  -18.3050   32.3630  -10.3200 H   0  0  0  0  0  0  0  0  0  0  0  0
  2  1  1  0  0  0  0
  3  4  1  6  0  0  0
  3  2  1  0  0  0  0
  3  5  1  0  0  0  0
  6  7  1  6  0  0  0
  6  5  1  0  0  0  0
  6  8  1  0  0  0  0
  8  9  1  0  0  0  0
  8 11  1  0  0  0  0
 10  8  1  0  0  0  0
 11 12  1  0  0  0  0
 13 14  1  1  0  0  0
 13  6  1  0  0  0  0
 15 26  1  0  0  0  0
 16 17  1  6  0  0  0
 16 20  1  0  0  0  0
 16 13  1  0  0  0  0
 18 16  1  0  0  0  0
 19 18  1  0  0  0  0
 20 21  1  1  0  0  0
 20  3  1  0  0  0  0
 22 20  1  0  0  0  0
 23 22  1  0  0  0  0
 24 25  2  0  0  0  0
 24 22  1  0  0  0  0
 26 27  1  0  0  0  0
 26 24  1  0  0  0  0
 28 26  1  0  0  0  0
 29 13  1  0  0  0  0
 29 30  1  0  0  0  0
 30 31  1  1  0  0  0
 32 33  1  0  0  0  0
 32 30  1  0  0  0  0
 33 34  1  1  0  0  0
 35 37  1  0  0  0  0
 35 38  1  0  0  0  0
 35 33  1  0  0  0  0
 36 35  1  0  0  0  0
 39 38  1  0  0  0  0
 40 41  1  6  0  0  0
 40 33  1  0  0  0  0
 40 56  1  0  0  0  0
 40 43  1  0  0  0  0
 43 44  1  1  0  0  0
 45 43  1  0  0  0  0
 45 46  1  0  0  0  0
 47 48  1  6  0  0  0
 47 30  1  0  0  0  0
 47 43  1  0  0  0  0
 47 49  1  0  0  0  0
 49 50  1  0  0  0  0
 51 49  1  0  0  0  0
 51 53  1  0  0  0  0
 52 51  2  0  0  0  0
 53 42  1  0  0  0  0
 53 54  1  0  0  0  0
 55 53  1  0  0  0  0
 57 58  1  6  0  0  0
 57 74  1  0  0  0  0
 57 56  1  0  0  0  0
 59 57  1  0  0  0  0
 60 61  1  6  0  0  0
 60 67  1  0  0  0  0
 60 59  1  0  0  0  0
 62 60  1  0  0  0  0
 62 63  1  0  0  0  0
 64 62  1  0  0  0  0
 65 62  1  0  0  0  0
 65 66  1  0  0  0  0
 67 70  1  0  0  0  0
 67 68  1  1  0  0  0
 69 80  1  0  0  0  0
 70 71  1  6  0  0  0
 70 72  1  0  0  0  0
 70 74  1  0  0  0  0
 72 73  1  0  0  0  0
 74 76  1  0  0  0  0
 74 75  1  1  0  0  0
 76 78  1  0  0  0  0
 77 76  1  0  0  0  0
 78 79  2  0  0  0  0
 80 78  1  0  0  0  0
 80 82  1  0  0  0  0
 81 80  1  0  0  0  0
 83 84  1  0  0  0  0
 83 67  1  0  0  0  0
 84 85  1  1  0  0  0
 84 86  1  0  0  0  0
 86 87  1  0  0  0  0
 87 88  1  1  0  0  0
 87 89  1  0  0  0  0
 89 91  1  0  0  0  0
 89 92  1  0  0  0  0
 90 89  1  0  0  0  0
 93 92  1  0  0  0  0
 94 95  1  6  0  0  0
 94110  1  0  0  0  0
 94 87  1  0  0  0  0
 96107  1  0  0  0  0
 97 98  1  1  0  0  0
 97 94  1  0  0  0  0
 99 97  1  0  0  0  0
100 99  1  0  0  0  0
101102  1  6  0  0  0
101 97  1  0  0  0  0
101 84  1  0  0  0  0
103104  1  0  0  0  0
103101  1  0  0  0  0
105103  1  0  0  0  0
106105  2  0  0  0  0
107108  1  0  0  0  0
107105  1  0  0  0  0
109107  1  0  0  0  0
111110  1  0  0  0  0
111128  1  0  0  0  0
111112  1  1  0  0  0
113111  1  0  0  0  0
114113  1  0  0  0  0
114121  1  0  0  0  0
114115  1  1  0  0  0
116114  1  0  0  0  0
117116  1  0  0  0  0
118116  1  0  0  0  0
119120  1  0  0  0  0
119116  1  0  0  0  0
121122  1  6  0  0  0
121124  1  0  0  0  0
124126  1  0  0  0  0
124128  1  0  0  0  0
124125  1  1  0  0  0
126127  1  0  0  0  0
128129  1  6  0  0  0
128130  1  0  0  0  0
130132  1  0  0  0  0
130131  1  0  0  0  0
132134  1  0  0  0  0
133132  2  0  0  0  0
134135  1  0  0  0  0
134136  1  0  0  0  0
134123  1  0  0  0  0
137121  1  0  0  0  0
138139  1  6  0  0  0
138140  1  0  0  0  0
138137  1  0  0  0  0
141142  1  6  0  0  0
141143  1  0  0  0  0
141140  1  0  0  0  0
143146  1  0  0  0  0
143144  1  0  0  0  0
145143  1  0  0  0  0
146147  1  0  0  0  0
148141  1  0  0  0  0
148149  1  1  0  0  0
150148  1  0  0  0  0
151150  1  0  0  0  0
152153  1  6  0  0  0
152154  1  0  0  0  0
152148  1  0  0  0  0
152156  1  0  0  0  0
155154  1  0  0  0  0
156138  1  0  0  0  0
156157  1  1  0  0  0
158156  1  0  0  0  0
158160  1  0  0  0  0
159158  1  0  0  0  0
160161  2  0  0  0  0
162160  1  0  0  0  0
162164  1  0  0  0  0
163162  1  0  0  0  0
165162  1  0  0  0  0
M  END
$$$$
C:\Users\eirik\OneDrive - Norwegian University of Life Sciences\Documents\Masteroppgave\glycam\NAG_kitin\pdb\DGlcpNAcb1-4DGlcpNAcb1-4DGlcpNAcb1-4DGlcpNAcb1-4DGlcpNAcb1-4DGlcpNAcb1-4DGlcpNAcb1-OH_structure_min-gas.pdb DGlcpNAcb1-4DGlcpNAcb1-4DGlcpNAcb1-4DGlcpNAcb1-4DGlcpNAcb1-4DGlcpNAcb1-4DGlcpNAcb1-OH_structure_min-gas.pdb
 OpenBabel01122616273D

192198  0  0  1  0  0  0  0  0999 V2000
   -3.4570    9.1070   -1.3130 H   0  0  0  0  0  0  0  0  0  0  0  0
   -3.9760    9.4070   -2.0620 O   0  0  0  0  0  0  0  0  0  0  0  0
   -3.7130   10.7970   -2.3010 C   0  0  2  0  0  0  0  0  0  0  0  0
   -2.6510   10.9190   -2.5170 H   0  0  0  0  0  0  0  0  0  0  0  0
   -4.0510   11.6030   -1.1110 O   0  0  0  0  0  0  0  0  0  0  0  0
   -3.8510   13.0650   -1.2340 C   0  0  2  0  0  0  0  0  0  0  0  0
   -2.8010   13.2570   -1.4700 H   0  0  0  0  0  0  0  0  0  0  0  0
   -4.1870   13.7140    0.1140 C   0  0  0  0  0  0  0  0  0  0  0  0
   -5.2040   13.4640    0.4200 H   0  0  0  0  0  0  0  0  0  0  0  0
   -4.1030   14.7990    0.0490 H   0  0  0  0  0  0  0  0  0  0  0  0
   -3.2620   13.2390    1.1010 O   0  0  0  0  0  0  0  0  0  0  0  0
   -3.3310   12.2840    1.1700 H   0  0  0  0  0  0  0  0  0  0  0  0
   -4.7260   13.5720   -2.3940 C   0  0  2  0  0  0  0  0  0  0  0  0
   -5.7790   13.4640   -2.1210 H   0  0  0  0  0  0  0  0  0  0  0  0
   -3.7300   10.0960   -7.3740 H   0  0  0  0  0  0  0  0  0  0  0  0
   -4.4550   12.7950   -3.6930 C   0  0  2  0  0  0  0  0  0  0  0  0
   -3.4570   13.0450   -4.0590 H   0  0  0  0  0  0  0  0  0  0  0  0
   -5.4260   13.2070   -4.6720 O   0  0  0  0  0  0  0  0  0  0  0  0
   -5.2700   12.7380   -5.4950 H   0  0  0  0  0  0  0  0  0  0  0  0
   -4.5650   11.2710   -3.4970 C   0  0  1  0  0  0  0  0  0  0  0  0
   -5.6090   11.0210   -3.2940 H   0  0  0  0  0  0  0  0  0  0  0  0
   -4.1270   10.5850   -4.7210 N   0  0  0  0  0  0  0  0  0  0  0  0
   -3.1410   10.6420   -4.9300 H   0  0  0  0  0  0  0  0  0  0  0  0
   -4.9320    9.9270   -5.5760 C   0  0  0  0  0  0  0  0  0  0  0  0
   -6.1500    9.8120   -5.4260 O   0  0  0  0  0  0  0  0  0  0  0  0
   -4.2190    9.3110   -6.7950 C   0  0  0  0  0  0  0  0  0  0  0  0
   -3.4710    8.5900   -6.4610 H   0  0  0  0  0  0  0  0  0  0  0  0
   -4.9390    8.7990   -7.4350 H   0  0  0  0  0  0  0  0  0  0  0  0
   -4.3940   14.9880   -2.6330 O   0  0  0  0  0  0  0  0  0  0  0  0
   -5.4650   15.9600   -2.3680 C   0  0  2  0  0  0  0  0  0  0  0  0
   -5.9030   15.7560   -1.3890 H   0  0  0  0  0  0  0  0  0  0  0  0
   -6.5210   15.8810   -3.3990 O   0  0  0  0  0  0  0  0  0  0  0  0
   -7.6270   16.8560   -3.2850 C   0  0  2  0  0  0  0  0  0  0  0  0
   -8.1030   16.7370   -2.3090 H   0  0  0  0  0  0  0  0  0  0  0  0
   -8.6530   16.5490   -4.3820 C   0  0  0  0  0  0  0  0  0  0  0  0
   -8.1860   16.5830   -5.3670 H   0  0  0  0  0  0  0  0  0  0  0  0
   -9.4660   17.2740   -4.3590 H   0  0  0  0  0  0  0  0  0  0  0  0
   -9.1950   15.2410   -4.1570 O   0  0  0  0  0  0  0  0  0  0  0  0
   -8.4860   14.5940   -4.1740 H   0  0  0  0  0  0  0  0  0  0  0  0
   -7.0140   18.2640   -3.3800 C   0  0  2  0  0  0  0  0  0  0  0  0
   -6.5790   18.3970   -4.3740 H   0  0  0  0  0  0  0  0  0  0  0  0
   -2.2650   18.5710    0.5980 H   0  0  0  0  0  0  0  0  0  0  0  0
   -5.9210   18.4700   -2.3190 C   0  0  2  0  0  0  0  0  0  0  0  0
   -6.3780   18.4840   -1.3270 H   0  0  0  0  0  0  0  0  0  0  0  0
   -5.2930   19.7420   -2.5620 O   0  0  0  0  0  0  0  0  0  0  0  0
   -4.6100   19.8920   -1.9040 H   0  0  0  0  0  0  0  0  0  0  0  0
   -4.8460   17.3700   -2.3810 C   0  0  1  0  0  0  0  0  0  0  0  0
   -4.2860   17.4850   -3.3120 H   0  0  0  0  0  0  0  0  0  0  0  0
   -3.9320   17.5040   -1.2390 N   0  0  0  0  0  0  0  0  0  0  0  0
   -4.3630   17.4970   -0.3270 H   0  0  0  0  0  0  0  0  0  0  0  0
   -2.5940   17.6110   -1.3210 C   0  0  0  0  0  0  0  0  0  0  0  0
   -1.9650   17.6170   -2.3800 O   0  0  0  0  0  0  0  0  0  0  0  0
   -1.8700   17.7250    0.0340 C   0  0  0  0  0  0  0  0  0  0  0  0
   -2.0160   16.8090    0.6090 H   0  0  0  0  0  0  0  0  0  0  0  0
   -0.8000   17.8760   -0.1200 H   0  0  0  0  0  0  0  0  0  0  0  0
   -8.0780   19.2580   -3.1440 O   0  0  0  0  0  0  0  0  0  0  0  0
   -8.4560   20.0730   -4.3090 C   0  0  2  0  0  0  0  0  0  0  0  0
   -8.6470   19.4160   -5.1600 H   0  0  0  0  0  0  0  0  0  0  0  0
   -7.3830   21.0250   -4.6610 O   0  0  0  0  0  0  0  0  0  0  0  0
   -7.6620   21.9330   -5.7940 C   0  0  2  0  0  0  0  0  0  0  0  0
   -7.8920   21.3340   -6.6780 H   0  0  0  0  0  0  0  0  0  0  0  0
   -6.4010   22.7620   -6.0660 C   0  0  0  0  0  0  0  0  0  0  0  0
   -6.1020   23.3130   -5.1740 H   0  0  0  0  0  0  0  0  0  0  0  0
   -6.5790   23.4760   -6.8700 H   0  0  0  0  0  0  0  0  0  0  0  0
   -5.3420   21.8790   -6.4600 O   0  0  0  0  0  0  0  0  0  0  0  0
   -5.1790   21.2440   -5.7590 H   0  0  0  0  0  0  0  0  0  0  0  0
   -8.8960   22.7730   -5.4200 C   0  0  2  0  0  0  0  0  0  0  0  0
   -8.6480   23.4100   -4.5660 H   0  0  0  0  0  0  0  0  0  0  0  0
  -13.3350   18.9230   -3.4220 H   0  0  0  0  0  0  0  0  0  0  0  0
  -10.0920   21.8810   -5.0520 C   0  0  2  0  0  0  0  0  0  0  0  0
  -10.4400   21.3580   -5.9450 H   0  0  0  0  0  0  0  0  0  0  0  0
  -11.1490   22.7260   -4.5630 O   0  0  0  0  0  0  0  0  0  0  0  0
  -11.9100   22.1870   -4.3340 H   0  0  0  0  0  0  0  0  0  0  0  0
   -9.7330   20.8570   -3.9580 C   0  0  1  0  0  0  0  0  0  0  0  0
   -9.5550   21.3950   -3.0240 H   0  0  0  0  0  0  0  0  0  0  0  0
  -10.8440   19.9140   -3.7770 N   0  0  0  0  0  0  0  0  0  0  0  0
  -11.1480   19.4260   -4.6070 H   0  0  0  0  0  0  0  0  0  0  0  0
  -11.4550   19.6450   -2.6090 C   0  0  0  0  0  0  0  0  0  0  0  0
  -11.1560   20.1710   -1.5360 O   0  0  0  0  0  0  0  0  0  0  0  0
  -12.5860   18.6020   -2.6960 C   0  0  0  0  0  0  0  0  0  0  0  0
  -12.1770   17.6380   -3.0020 H   0  0  0  0  0  0  0  0  0  0  0  0
  -13.0690   18.4860   -1.7240 H   0  0  0  0  0  0  0  0  0  0  0  0
   -9.2750   23.5930   -6.5850 O   0  0  0  0  0  0  0  0  0  0  0  0
   -9.0550   25.0400   -6.4420 C   0  0  2  0  0  0  0  0  0  0  0  0
   -8.0390   25.2150   -6.0840 H   0  0  0  0  0  0  0  0  0  0  0  0
  -10.0150   25.6310   -5.4870 O   0  0  0  0  0  0  0  0  0  0  0  0
   -9.9230   27.0930   -5.2910 C   0  0  2  0  0  0  0  0  0  0  0  0
   -8.9120   27.3420   -4.9590 H   0  0  0  0  0  0  0  0  0  0  0  0
  -10.9200   27.4930   -4.1960 C   0  0  0  0  0  0  0  0  0  0  0  0
  -11.9310   27.1850   -4.4640 H   0  0  0  0  0  0  0  0  0  0  0  0
  -10.9140   28.5730   -4.0490 H   0  0  0  0  0  0  0  0  0  0  0  0
  -10.5380   26.8590   -2.9680 O   0  0  0  0  0  0  0  0  0  0  0  0
  -10.5370   25.9070   -3.0860 H   0  0  0  0  0  0  0  0  0  0  0  0
  -10.1850   27.7590   -6.6520 C   0  0  2  0  0  0  0  0  0  0  0  0
  -11.2140   27.5490   -6.9590 H   0  0  0  0  0  0  0  0  0  0  0  0
   -6.5700   25.0080  -10.8830 H   0  0  0  0  0  0  0  0  0  0  0  0
   -9.2210   27.2340   -7.7280 C   0  0  2  0  0  0  0  0  0  0  0  0
   -8.2090   27.5750   -7.5030 H   0  0  0  0  0  0  0  0  0  0  0  0
   -9.6260   27.7790   -8.9980 O   0  0  0  0  0  0  0  0  0  0  0  0
   -9.0300   27.4680   -9.6830 H   0  0  0  0  0  0  0  0  0  0  0  0
   -9.2430   25.6970   -7.8210 C   0  0  1  0  0  0  0  0  0  0  0  0
  -10.2130   25.3860   -8.2160 H   0  0  0  0  0  0  0  0  0  0  0  0
   -8.1780   25.2390   -8.7230 N   0  0  0  0  0  0  0  0  0  0  0  0
   -7.2460   25.5570   -8.5000 H   0  0  0  0  0  0  0  0  0  0  0  0
   -8.3490   24.4280   -9.7820 C   0  0  0  0  0  0  0  0  0  0  0  0
   -9.4380   23.9710  -10.1330 O   0  0  0  0  0  0  0  0  0  0  0  0
   -7.0580   24.0900  -10.5530 C   0  0  0  0  0  0  0  0  0  0  0  0
   -6.3790   23.5310   -9.9080 H   0  0  0  0  0  0  0  0  0  0  0  0
   -7.2900   23.4830  -11.4300 H   0  0  0  0  0  0  0  0  0  0  0  0
   -9.9730   29.2110   -6.5130 O   0  0  0  0  0  0  0  0  0  0  0  0
  -11.1830   30.0410   -6.6030 C   0  0  2  0  0  0  0  0  0  0  0  0
  -11.9510   29.6300   -5.9440 H   0  0  0  0  0  0  0  0  0  0  0  0
  -11.6990   30.0750   -7.9870 O   0  0  0  0  0  0  0  0  0  0  0  0
  -12.8960   30.9120   -8.2150 C   0  0  2  0  0  0  0  0  0  0  0  0
  -13.6980   30.5680   -7.5580 H   0  0  0  0  0  0  0  0  0  0  0  0
  -13.3350   30.7330   -9.6730 C   0  0  0  0  0  0  0  0  0  0  0  0
  -12.5250   30.9940  -10.3550 H   0  0  0  0  0  0  0  0  0  0  0  0
  -14.1920   31.3680   -9.8950 H   0  0  0  0  0  0  0  0  0  0  0  0
  -13.7100   29.3650   -9.8800 O   0  0  0  0  0  0  0  0  0  0  0  0
  -12.9630   28.7950   -9.6830 H   0  0  0  0  0  0  0  0  0  0  0  0
  -12.5260   32.3590   -7.8450 C   0  0  2  0  0  0  0  0  0  0  0  0
  -11.7610   32.7200   -8.5370 H   0  0  0  0  0  0  0  0  0  0  0  0
   -9.8210   32.2770   -2.2460 H   0  0  0  0  0  0  0  0  0  0  0  0
  -11.9890   32.4500   -6.4070 C   0  0  2  0  0  0  0  0  0  0  0  0
  -12.8000   32.2420   -5.7060 H   0  0  0  0  0  0  0  0  0  0  0  0
  -11.5160   33.7920   -6.1880 O   0  0  0  0  0  0  0  0  0  0  0  0
  -11.1830   33.8720   -5.2910 H   0  0  0  0  0  0  0  0  0  0  0  0
  -10.8260   31.4710   -6.1610 C   0  0  1  0  0  0  0  0  0  0  0  0
   -9.9630   31.8020   -6.7430 H   0  0  0  0  0  0  0  0  0  0  0  0
  -10.4790   31.4610   -4.7330 N   0  0  0  0  0  0  0  0  0  0  0  0
  -11.2440   31.2960   -4.0950 H   0  0  0  0  0  0  0  0  0  0  0  0
   -9.2410   31.6180   -4.2320 C   0  0  0  0  0  0  0  0  0  0  0  0
   -8.2360   31.8060   -4.9200 O   0  0  0  0  0  0  0  0  0  0  0  0
   -9.1500   31.5430   -2.6960 C   0  0  0  0  0  0  0  0  0  0  0  0
   -9.4300   30.5440   -2.3580 H   0  0  0  0  0  0  0  0  0  0  0  0
   -8.1310   31.7530   -2.3670 H   0  0  0  0  0  0  0  0  0  0  0  0
  -13.7400   33.1900   -7.9350 O   0  0  0  0  0  0  0  0  0  0  0  0
  -13.7650   34.1650   -9.0360 C   0  0  2  0  0  0  0  0  0  0  0  0
  -13.4880   33.6650   -9.9650 H   0  0  0  0  0  0  0  0  0  0  0  0
  -12.8210   35.2720   -8.7810 O   0  0  0  0  0  0  0  0  0  0  0  0
  -12.7900   36.3490   -9.7940 C   0  0  2  0  0  0  0  0  0  0  0  0
  -12.5520   35.9130  -10.7670 H   0  0  0  0  0  0  0  0  0  0  0  0
  -11.6820   37.3360   -9.4060 C   0  0  0  0  0  0  0  0  0  0  0  0
  -11.8510   37.7310   -8.4030 H   0  0  0  0  0  0  0  0  0  0  0  0
  -11.6520   38.1710  -10.1060 H   0  0  0  0  0  0  0  0  0  0  0  0
  -10.4210   36.6570   -9.4470 O   0  0  0  0  0  0  0  0  0  0  0  0
  -10.4370   35.9160   -8.8360 H   0  0  0  0  0  0  0  0  0  0  0  0
  -14.1970   36.9700   -9.8500 C   0  0  2  0  0  0  0  0  0  0  0  0
  -14.4180   37.4400   -8.8880 H   0  0  0  0  0  0  0  0  0  0  0  0
  -18.3040   32.3190  -10.3700 H   0  0  0  0  0  0  0  0  0  0  0  0
  -15.2650   35.9040  -10.1440 C   0  0  2  0  0  0  0  0  0  0  0  0
  -15.1350   35.5340  -11.1630 H   0  0  0  0  0  0  0  0  0  0  0  0
  -16.5600   36.5230  -10.0330 O   0  0  0  0  0  0  0  0  0  0  0  0
  -17.2420   35.8730  -10.2190 H   0  0  0  0  0  0  0  0  0  0  0  0
  -15.1920   34.7290   -9.1500 C   0  0  1  0  0  0  0  0  0  0  0  0
  -15.4960   35.0890   -8.1640 H   0  0  0  0  0  0  0  0  0  0  0  0
  -16.1010   33.6570   -9.5790 N   0  0  0  0  0  0  0  0  0  0  0  0
  -16.0090   33.3590  -10.5390 H   0  0  0  0  0  0  0  0  0  0  0  0
  -16.9950   33.0330   -8.7910 C   0  0  0  0  0  0  0  0  0  0  0  0
  -17.1730   33.3030   -7.6020 O   0  0  0  0  0  0  0  0  0  0  0  0
  -17.8050   31.9210   -9.4850 C   0  0  0  0  0  0  0  0  0  0  0  0
  -17.1380   31.1100   -9.7810 H   0  0  0  0  0  0  0  0  0  0  0  0
  -18.5610   31.5250   -8.8050 H   0  0  0  0  0  0  0  0  0  0  0  0
  -14.2280   37.9700  -10.9330 O   0  0  0  0  0  0  0  0  0  0  0  0
  -14.3050   39.3720  -10.4930 C   0  0  2  0  0  0  0  0  0  0  0  0
  -13.5730   39.5400   -9.7010 H   0  0  0  0  0  0  0  0  0  0  0  0
  -15.6530   39.6930   -9.9870 O   0  0  0  0  0  0  0  0  0  0  0  0
  -15.8520   41.0770   -9.5040 C   0  0  2  0  0  0  0  0  0  0  0  0
  -15.1400   41.2690   -8.6980 H   0  0  0  0  0  0  0  0  0  0  0  0
  -17.2780   41.1780   -8.9490 C   0  0  0  0  0  0  0  0  0  0  0  0
  -18.0090   40.8970   -9.7080 H   0  0  0  0  0  0  0  0  0  0  0  0
  -17.4910   42.1970   -8.6250 H   0  0  0  0  0  0  0  0  0  0  0  0
  -17.4000   40.2990   -7.8220 O   0  0  0  0  0  0  0  0  0  0  0  0
  -17.2120   39.3990   -8.0970 H   0  0  0  0  0  0  0  0  0  0  0  0
  -15.5650   42.0370  -10.6760 C   0  0  1  0  0  0  0  0  0  0  0  0
  -16.3560   41.9470  -11.4230 H   0  0  0  0  0  0  0  0  0  0  0  0
  -15.5550   43.3770  -10.1530 O   0  0  0  0  0  0  0  0  0  0  0  0
  -15.3810   43.9970  -10.8650 H   0  0  0  0  0  0  0  0  0  0  0  0
  -14.1930   41.7720  -11.3270 C   0  0  2  0  0  0  0  0  0  0  0  0
  -13.3990   42.0880  -10.6470 H   0  0  0  0  0  0  0  0  0  0  0  0
  -14.1100   42.5470  -12.5380 O   0  0  0  0  0  0  0  0  0  0  0  0
  -13.2600   42.3950  -12.9570 H   0  0  0  0  0  0  0  0  0  0  0  0
  -13.9940   40.2870  -11.6900 C   0  0  1  0  0  0  0  0  0  0  0  0
  -14.6760   40.0290  -12.5030 H   0  0  0  0  0  0  0  0  0  0  0  0
  -12.6090   40.0610  -12.1250 N   0  0  0  0  0  0  0  0  0  0  0  0
  -11.8910   40.4410  -11.5250 H   0  0  0  0  0  0  0  0  0  0  0  0
  -12.2400   39.3620  -13.2140 C   0  0  0  0  0  0  0  0  0  0  0  0
  -13.0330   38.8370  -13.9970 O   0  0  0  0  0  0  0  0  0  0  0  0
  -10.7190   39.2480  -13.4260 C   0  0  0  0  0  0  0  0  0  0  0  0
  -10.2730   38.6900  -12.6010 H   0  0  0  0  0  0  0  0  0  0  0  0
  -10.5060   38.7250  -14.3590 H   0  0  0  0  0  0  0  0  0  0  0  0
  -10.2730   40.2430  -13.4720 H   0  0  0  0  0  0  0  0  0  0  0  0
  2  1  1  0  0  0  0
  3  4  1  6  0  0  0
  3  2  1  0  0  0  0
  3  5  1  0  0  0  0
  6  7  1  6  0  0  0
  6  5  1  0  0  0  0
  6  8  1  0  0  0  0
  8  9  1  0  0  0  0
  8 11  1  0  0  0  0
 10  8  1  0  0  0  0
 11 12  1  0  0  0  0
 13 14  1  1  0  0  0
 13  6  1  0  0  0  0
 15 26  1  0  0  0  0
 16 17  1  6  0  0  0
 16 20  1  0  0  0  0
 16 13  1  0  0  0  0
 18 16  1  0  0  0  0
 19 18  1  0  0  0  0
 20 21  1  1  0  0  0
 20  3  1  0  0  0  0
 22 20  1  0  0  0  0
 23 22  1  0  0  0  0
 24 25  2  0  0  0  0
 24 22  1  0  0  0  0
 26 27  1  0  0  0  0
 26 24  1  0  0  0  0
 28 26  1  0  0  0  0
 29 13  1  0  0  0  0
 29 30  1  0  0  0  0
 30 31  1  1  0  0  0
 32 33  1  0  0  0  0
 32 30  1  0  0  0  0
 33 34  1  1  0  0  0
 35 37  1  0  0  0  0
 35 38  1  0  0  0  0
 35 33  1  0  0  0  0
 36 35  1  0  0  0  0
 39 38  1  0  0  0  0
 40 41  1  6  0  0  0
 40 33  1  0  0  0  0
 40 56  1  0  0  0  0
 40 43  1  0  0  0  0
 43 44  1  1  0  0  0
 45 43  1  0  0  0  0
 45 46  1  0  0  0  0
 47 48  1  6  0  0  0
 47 30  1  0  0  0  0
 47 43  1  0  0  0  0
 47 49  1  0  0  0  0
 49 50  1  0  0  0  0
 51 49  1  0  0  0  0
 51 53  1  0  0  0  0
 52 51  2  0  0  0  0
 53 42  1  0  0  0  0
 53 54  1  0  0  0  0
 55 53  1  0  0  0  0
 57 58  1  6  0  0  0
 57 74  1  0  0  0  0
 57 56  1  0  0  0  0
 59 57  1  0  0  0  0
 60 61  1  6  0  0  0
 60 67  1  0  0  0  0
 60 59  1  0  0  0  0
 62 60  1  0  0  0  0
 62 63  1  0  0  0  0
 64 62  1  0  0  0  0
 65 62  1  0  0  0  0
 65 66  1  0  0  0  0
 67 70  1  0  0  0  0
 67 68  1  1  0  0  0
 69 80  1  0  0  0  0
 70 71  1  6  0  0  0
 70 72  1  0  0  0  0
 70 74  1  0  0  0  0
 72 73  1  0  0  0  0
 74 76  1  0  0  0  0
 74 75  1  1  0  0  0
 76 78  1  0  0  0  0
 77 76  1  0  0  0  0
 78 79  2  0  0  0  0
 80 78  1  0  0  0  0
 80 82  1  0  0  0  0
 81 80  1  0  0  0  0
 83 84  1  0  0  0  0
 83 67  1  0  0  0  0
 84 85  1  1  0  0  0
 84 86  1  0  0  0  0
 86 87  1  0  0  0  0
 87 88  1  1  0  0  0
 87 89  1  0  0  0  0
 89 91  1  0  0  0  0
 89 92  1  0  0  0  0
 90 89  1  0  0  0  0
 93 92  1  0  0  0  0
 94 95  1  6  0  0  0
 94110  1  0  0  0  0
 94 87  1  0  0  0  0
 96107  1  0  0  0  0
 97 98  1  1  0  0  0
 97 94  1  0  0  0  0
 99 97  1  0  0  0  0
100 99  1  0  0  0  0
101102  1  6  0  0  0
101 97  1  0  0  0  0
101 84  1  0  0  0  0
103104  1  0  0  0  0
103101  1  0  0  0  0
105103  1  0  0  0  0
106105  2  0  0  0  0
107108  1  0  0  0  0
107105  1  0  0  0  0
109107  1  0  0  0  0
111110  1  0  0  0  0
111128  1  0  0  0  0
111112  1  1  0  0  0
113111  1  0  0  0  0
114113  1  0  0  0  0
114121  1  0  0  0  0
114115  1  1  0  0  0
116114  1  0  0  0  0
117116  1  0  0  0  0
118116  1  0  0  0  0
119120  1  0  0  0  0
119116  1  0  0  0  0
121122  1  6  0  0  0
121124  1  0  0  0  0
124126  1  0  0  0  0
124128  1  0  0  0  0
124125  1  1  0  0  0
126127  1  0  0  0  0
128129  1  6  0  0  0
128130  1  0  0  0  0
130132  1  0  0  0  0
130131  1  0  0  0  0
132134  1  0  0  0  0
133132  2  0  0  0  0
134136  1  0  0  0  0
134135  1  0  0  0  0
134123  1  0  0  0  0
137121  1  0  0  0  0
138139  1  6  0  0  0
138140  1  0  0  0  0
138137  1  0  0  0  0
141142  1  6  0  0  0
141143  1  0  0  0  0
141140  1  0  0  0  0
143144  1  0  0  0  0
145143  1  0  0  0  0
146143  1  0  0  0  0
146147  1  0  0  0  0
148141  1  0  0  0  0
148149  1  1  0  0  0
150161  1  0  0  0  0
151152  1  6  0  0  0
151153  1  0  0  0  0
151148  1  0  0  0  0
151155  1  0  0  0  0
154153  1  0  0  0  0
155138  1  0  0  0  0
155156  1  1  0  0  0
157155  1  0  0  0  0
157159  1  0  0  0  0
158157  1  0  0  0  0
159160  2  0  0  0  0
161163  1  0  0  0  0
161159  1  0  0  0  0
162161  1  0  0  0  0
164165  1  0  0  0  0
164148  1  0  0  0  0
165167  1  0  0  0  0
165166  1  1  0  0  0
167168  1  0  0  0  0
168170  1  0  0  0  0
168169  1  1  0  0  0
170172  1  0  0  0  0
170173  1  0  0  0  0
171170  1  0  0  0  0
174173  1  0  0  0  0
175176  1  6  0  0  0
175177  1  0  0  0  0
175168  1  0  0  0  0
178177  1  0  0  0  0
179175  1  0  0  0  0
179180  1  1  0  0  0
181179  1  0  0  0  0
182181  1  0  0  0  0
183184  1  6  0  0  0
183179  1  0  0  0  0
183165  1  0  0  0  0
185183  1  0  0  0  0
185186  1  0  0  0  0
187185  1  0  0  0  0
188187  2  0  0  0  0
189187  1  0  0  0  0
189190  1  0  0  0  0
191189  1  0  0  0  0
192189  1  0  0  0  0
M  END
$$$$
C:\Users\eirik\OneDrive - Norwegian University of Life Sciences\Documents\Masteroppgave\glycam\NAG_kitin\pdb\DGlcpNAcb1-4DGlcpNAcb1-4DGlcpNAcb1-4DGlcpNAcb1-4DGlcpNAcb1-4DGlcpNAcb1-4DGlcpNAcb1-4DGlcpNAcb1-OH_structure_min-gas.pdb DGlcpNAcb1-4DGlcpNAcb1-4DGlcpNAcb1-4DGlcpNAcb1-4DGlcpNAcb1-4DGlcpNAcb1-4DGlcpNAcb1-4DGlcpNAcb1-OH_structure_min-gas.pdb
 OpenBabel01122616273D

219226  0  0  1  0  0  0  0  0999 V2000
   -3.4400    9.0730   -1.3130 H   0  0  0  0  0  0  0  0  0  0  0  0
   -3.9610    9.3750   -2.0610 O   0  0  0  0  0  0  0  0  0  0  0  0
   -3.6980   10.7660   -2.2960 C   0  0  2  0  0  0  0  0  0  0  0  0
   -2.6360   10.8880   -2.5140 H   0  0  0  0  0  0  0  0  0  0  0  0
   -4.0350   11.5690   -1.1040 O   0  0  0  0  0  0  0  0  0  0  0  0
   -3.8350   13.0320   -1.2230 C   0  0  2  0  0  0  0  0  0  0  0  0
   -2.7860   13.2240   -1.4590 H   0  0  0  0  0  0  0  0  0  0  0  0
   -4.1710   13.6760    0.1270 C   0  0  0  0  0  0  0  0  0  0  0  0
   -5.1870   13.4260    0.4330 H   0  0  0  0  0  0  0  0  0  0  0  0
   -4.0870   14.7610    0.0640 H   0  0  0  0  0  0  0  0  0  0  0  0
   -3.2450   13.1990    1.1120 O   0  0  0  0  0  0  0  0  0  0  0  0
   -3.3130   12.2440    1.1790 H   0  0  0  0  0  0  0  0  0  0  0  0
   -4.7120   13.5410   -2.3810 C   0  0  2  0  0  0  0  0  0  0  0  0
   -5.7650   13.4310   -2.1070 H   0  0  0  0  0  0  0  0  0  0  0  0
   -3.7200   10.0830   -7.3730 H   0  0  0  0  0  0  0  0  0  0  0  0
   -4.4410   12.7680   -3.6820 C   0  0  2  0  0  0  0  0  0  0  0  0
   -3.4440   13.0190   -4.0480 H   0  0  0  0  0  0  0  0  0  0  0  0
   -5.4140   13.1820   -4.6590 O   0  0  0  0  0  0  0  0  0  0  0  0
   -5.2580   12.7150   -5.4840 H   0  0  0  0  0  0  0  0  0  0  0  0
   -4.5510   11.2430   -3.4900 C   0  0  1  0  0  0  0  0  0  0  0  0
   -5.5950   10.9920   -3.2860 H   0  0  0  0  0  0  0  0  0  0  0  0
   -4.1150   10.5600   -4.7170 N   0  0  0  0  0  0  0  0  0  0  0  0
   -3.1290   10.6150   -4.9250 H   0  0  0  0  0  0  0  0  0  0  0  0
   -4.9220    9.9090   -5.5750 C   0  0  0  0  0  0  0  0  0  0  0  0
   -6.1400    9.7970   -5.4260 O   0  0  0  0  0  0  0  0  0  0  0  0
   -4.2100    9.2960   -6.7960 C   0  0  0  0  0  0  0  0  0  0  0  0
   -3.4630    8.5730   -6.4660 H   0  0  0  0  0  0  0  0  0  0  0  0
   -4.9310    8.7880   -7.4380 H   0  0  0  0  0  0  0  0  0  0  0  0
   -4.3800   14.9580   -2.6160 O   0  0  0  0  0  0  0  0  0  0  0  0
   -5.4540   15.9270   -2.3520 C   0  0  2  0  0  0  0  0  0  0  0  0
   -5.8900   15.7230   -1.3720 H   0  0  0  0  0  0  0  0  0  0  0  0
   -6.5100   15.8440   -3.3820 O   0  0  0  0  0  0  0  0  0  0  0  0
   -7.6180   16.8170   -3.2690 C   0  0  2  0  0  0  0  0  0  0  0  0
   -8.0940   16.6990   -2.2930 H   0  0  0  0  0  0  0  0  0  0  0  0
   -8.6430   16.5050   -4.3670 C   0  0  0  0  0  0  0  0  0  0  0  0
   -8.1770   16.5390   -5.3520 H   0  0  0  0  0  0  0  0  0  0  0  0
   -9.4580   17.2290   -4.3440 H   0  0  0  0  0  0  0  0  0  0  0  0
   -9.1830   15.1970   -4.1390 O   0  0  0  0  0  0  0  0  0  0  0  0
   -8.4720   14.5510   -4.1540 H   0  0  0  0  0  0  0  0  0  0  0  0
   -7.0080   18.2260   -3.3680 C   0  0  2  0  0  0  0  0  0  0  0  0
   -6.5720   18.3560   -4.3620 H   0  0  0  0  0  0  0  0  0  0  0  0
   -2.2640   18.5590    0.6120 H   0  0  0  0  0  0  0  0  0  0  0  0
   -5.9160   18.4370   -2.3070 C   0  0  2  0  0  0  0  0  0  0  0  0
   -6.3740   18.4510   -1.3160 H   0  0  0  0  0  0  0  0  0  0  0  0
   -5.2900   19.7100   -2.5520 O   0  0  0  0  0  0  0  0  0  0  0  0
   -4.6080   19.8620   -1.8940 H   0  0  0  0  0  0  0  0  0  0  0  0
   -4.8380   17.3390   -2.3670 C   0  0  1  0  0  0  0  0  0  0  0  0
   -4.2780   17.4540   -3.2980 H   0  0  0  0  0  0  0  0  0  0  0  0
   -3.9240   17.4770   -1.2260 N   0  0  0  0  0  0  0  0  0  0  0  0
   -4.3550   17.4620   -0.3130 H   0  0  0  0  0  0  0  0  0  0  0  0
   -2.5870   17.5990   -1.3090 C   0  0  0  0  0  0  0  0  0  0  0  0
   -1.9600   17.6170   -2.3690 O   0  0  0  0  0  0  0  0  0  0  0  0
   -1.8630   17.7160    0.0460 C   0  0  0  0  0  0  0  0  0  0  0  0
   -2.0020   16.7980    0.6190 H   0  0  0  0  0  0  0  0  0  0  0  0
   -0.7950   17.8760   -0.1090 H   0  0  0  0  0  0  0  0  0  0  0  0
   -8.0730   19.2180   -3.1360 O   0  0  0  0  0  0  0  0  0  0  0  0
   -8.4480   20.0300   -4.3040 C   0  0  2  0  0  0  0  0  0  0  0  0
   -8.6390   19.3720   -5.1530 H   0  0  0  0  0  0  0  0  0  0  0  0
   -7.3710   20.9790   -4.6570 O   0  0  0  0  0  0  0  0  0  0  0  0
   -7.6470   21.8860   -5.7920 C   0  0  2  0  0  0  0  0  0  0  0  0
   -7.8780   21.2860   -6.6760 H   0  0  0  0  0  0  0  0  0  0  0  0
   -6.3820   22.7100   -6.0640 C   0  0  0  0  0  0  0  0  0  0  0  0
   -6.0820   23.2610   -5.1730 H   0  0  0  0  0  0  0  0  0  0  0  0
   -6.5580   23.4230   -6.8700 H   0  0  0  0  0  0  0  0  0  0  0  0
   -5.3260   21.8230   -6.4570 O   0  0  0  0  0  0  0  0  0  0  0  0
   -5.1650   21.1880   -5.7550 H   0  0  0  0  0  0  0  0  0  0  0  0
   -8.8770   22.7300   -5.4190 C   0  0  2  0  0  0  0  0  0  0  0  0
   -8.6260   23.3640   -4.5640 H   0  0  0  0  0  0  0  0  0  0  0  0
  -13.3360   18.9040   -3.4270 H   0  0  0  0  0  0  0  0  0  0  0  0
  -10.0770   21.8420   -5.0520 C   0  0  2  0  0  0  0  0  0  0  0  0
  -10.4250   21.3200   -5.9460 H   0  0  0  0  0  0  0  0  0  0  0  0
  -11.1330   22.6920   -4.5670 O   0  0  0  0  0  0  0  0  0  0  0  0
  -11.8950   22.1550   -4.3390 H   0  0  0  0  0  0  0  0  0  0  0  0
   -9.7230   20.8200   -3.9570 C   0  0  1  0  0  0  0  0  0  0  0  0
   -9.5440   21.3590   -3.0230 H   0  0  0  0  0  0  0  0  0  0  0  0
  -10.8370   19.8810   -3.7750 N   0  0  0  0  0  0  0  0  0  0  0  0
  -11.1360   19.3860   -4.6030 H   0  0  0  0  0  0  0  0  0  0  0  0
  -11.4580   19.6250   -2.6100 C   0  0  0  0  0  0  0  0  0  0  0  0
  -11.1660   20.1610   -1.5390 O   0  0  0  0  0  0  0  0  0  0  0  0
  -12.5920   18.5850   -2.6950 C   0  0  0  0  0  0  0  0  0  0  0  0
  -12.1840   17.6180   -2.9930 H   0  0  0  0  0  0  0  0  0  0  0  0
  -13.0800   18.4770   -1.7250 H   0  0  0  0  0  0  0  0  0  0  0  0
   -9.2510   23.5540   -6.5820 O   0  0  0  0  0  0  0  0  0  0  0  0
   -9.0300   25.0000   -6.4310 C   0  0  2  0  0  0  0  0  0  0  0  0
   -8.0120   25.1720   -6.0750 H   0  0  0  0  0  0  0  0  0  0  0  0
   -9.9870   25.5840   -5.4690 O   0  0  0  0  0  0  0  0  0  0  0  0
   -9.8930   27.0440   -5.2620 C   0  0  2  0  0  0  0  0  0  0  0  0
   -8.8820   27.2910   -4.9320 H   0  0  0  0  0  0  0  0  0  0  0  0
  -10.8870   27.4360   -4.1620 C   0  0  0  0  0  0  0  0  0  0  0  0
  -11.8990   27.1320   -4.4290 H   0  0  0  0  0  0  0  0  0  0  0  0
  -10.8790   28.5150   -4.0070 H   0  0  0  0  0  0  0  0  0  0  0  0
  -10.5020   26.7930   -2.9390 O   0  0  0  0  0  0  0  0  0  0  0  0
  -10.5010   25.8420   -3.0650 H   0  0  0  0  0  0  0  0  0  0  0  0
  -10.1610   27.7190   -6.6180 C   0  0  2  0  0  0  0  0  0  0  0  0
  -11.1900   27.5090   -6.9230 H   0  0  0  0  0  0  0  0  0  0  0  0
   -6.5570   25.0050  -10.8810 H   0  0  0  0  0  0  0  0  0  0  0  0
   -9.2000   27.2030   -7.7010 C   0  0  2  0  0  0  0  0  0  0  0  0
   -8.1870   27.5420   -7.4760 H   0  0  0  0  0  0  0  0  0  0  0  0
   -9.6080   27.7570   -8.9660 O   0  0  0  0  0  0  0  0  0  0  0  0
   -9.0140   27.4510   -9.6550 H   0  0  0  0  0  0  0  0  0  0  0  0
   -9.2220   25.6670   -7.8050 C   0  0  1  0  0  0  0  0  0  0  0  0
  -10.1930   25.3590   -8.1990 H   0  0  0  0  0  0  0  0  0  0  0  0
   -8.1600   25.2150   -8.7130 N   0  0  0  0  0  0  0  0  0  0  0  0
   -7.2260   25.5260   -8.4880 H   0  0  0  0  0  0  0  0  0  0  0  0
   -8.3350   24.4180   -9.7830 C   0  0  0  0  0  0  0  0  0  0  0  0
   -9.4260   23.9710  -10.1390 O   0  0  0  0  0  0  0  0  0  0  0  0
   -7.0470   24.0850  -10.5600 C   0  0  0  0  0  0  0  0  0  0  0  0
   -6.3670   23.5180   -9.9220 H   0  0  0  0  0  0  0  0  0  0  0  0
   -7.2820   23.4870  -11.4420 H   0  0  0  0  0  0  0  0  0  0  0  0
   -9.9500   29.1700   -6.4690 O   0  0  0  0  0  0  0  0  0  0  0  0
  -11.1640   29.9960   -6.5500 C   0  0  2  0  0  0  0  0  0  0  0  0
  -11.9250   29.5810   -5.8870 H   0  0  0  0  0  0  0  0  0  0  0  0
  -11.6890   30.0310   -7.9300 O   0  0  0  0  0  0  0  0  0  0  0  0
  -12.8880   30.8680   -8.1490 C   0  0  2  0  0  0  0  0  0  0  0  0
  -13.6860   30.5230   -7.4880 H   0  0  0  0  0  0  0  0  0  0  0  0
  -13.3350   30.6910   -9.6060 C   0  0  0  0  0  0  0  0  0  0  0  0
  -12.5290   30.9540  -10.2920 H   0  0  0  0  0  0  0  0  0  0  0  0
  -14.1940   31.3250   -9.8210 H   0  0  0  0  0  0  0  0  0  0  0  0
  -13.7100   29.3220   -9.8120 O   0  0  0  0  0  0  0  0  0  0  0  0
  -12.9600   28.7530   -9.6210 H   0  0  0  0  0  0  0  0  0  0  0  0
  -12.5140   32.3130   -7.7790 C   0  0  2  0  0  0  0  0  0  0  0  0
  -11.7490   32.6720   -8.4720 H   0  0  0  0  0  0  0  0  0  0  0  0
   -9.8000   32.2330   -2.1900 H   0  0  0  0  0  0  0  0  0  0  0  0
  -11.9740   32.4030   -6.3430 C   0  0  2  0  0  0  0  0  0  0  0  0
  -12.7820   32.1910   -5.6390 H   0  0  0  0  0  0  0  0  0  0  0  0
  -11.5030   33.7450   -6.1220 O   0  0  0  0  0  0  0  0  0  0  0  0
  -11.1680   33.8230   -5.2260 H   0  0  0  0  0  0  0  0  0  0  0  0
  -10.8080   31.4260   -6.1050 C   0  0  1  0  0  0  0  0  0  0  0  0
   -9.9480   31.7600   -6.6900 H   0  0  0  0  0  0  0  0  0  0  0  0
  -10.4530   31.4130   -4.6790 N   0  0  0  0  0  0  0  0  0  0  0  0
  -11.2120   31.2280   -4.0390 H   0  0  0  0  0  0  0  0  0  0  0  0
   -9.2170   31.5950   -4.1820 C   0  0  0  0  0  0  0  0  0  0  0  0
   -8.2200   31.8090   -4.8730 O   0  0  0  0  0  0  0  0  0  0  0  0
   -9.1180   31.5140   -2.6470 C   0  0  0  0  0  0  0  0  0  0  0  0
   -9.3790   30.5080   -2.3130 H   0  0  0  0  0  0  0  0  0  0  0  0
   -8.1020   31.7400   -2.3210 H   0  0  0  0  0  0  0  0  0  0  0  0
  -13.7260   33.1480   -7.8680 O   0  0  0  0  0  0  0  0  0  0  0  0
  -13.7420   34.1220   -8.9690 C   0  0  2  0  0  0  0  0  0  0  0  0
  -13.4690   33.6180   -9.8990 H   0  0  0  0  0  0  0  0  0  0  0  0
  -12.7890   35.2220   -8.7150 O   0  0  0  0  0  0  0  0  0  0  0  0
  -12.7420   36.2900   -9.7360 C   0  0  2  0  0  0  0  0  0  0  0  0
  -12.5020   35.8430  -10.7040 H   0  0  0  0  0  0  0  0  0  0  0  0
  -11.6290   37.2720   -9.3500 C   0  0  0  0  0  0  0  0  0  0  0  0
  -11.8010   37.6760   -8.3520 H   0  0  0  0  0  0  0  0  0  0  0  0
  -11.5890   38.1000  -10.0570 H   0  0  0  0  0  0  0  0  0  0  0  0
  -10.3730   36.5820   -9.3770 O   0  0  0  0  0  0  0  0  0  0  0  0
  -10.3990   35.8460   -8.7610 H   0  0  0  0  0  0  0  0  0  0  0  0
  -14.1420   36.9230   -9.8060 C   0  0  2  0  0  0  0  0  0  0  0  0
  -14.3600   37.4130   -8.8540 H   0  0  0  0  0  0  0  0  0  0  0  0
  -18.3040   32.3250  -10.3090 H   0  0  0  0  0  0  0  0  0  0  0  0
  -15.2230   35.8670  -10.0890 C   0  0  2  0  0  0  0  0  0  0  0  0
  -15.0990   35.4870  -11.1050 H   0  0  0  0  0  0  0  0  0  0  0  0
  -16.5110   36.5010   -9.9820 O   0  0  0  0  0  0  0  0  0  0  0  0
  -17.2000   35.8580  -10.1630 H   0  0  0  0  0  0  0  0  0  0  0  0
  -15.1640   34.6990   -9.0870 C   0  0  1  0  0  0  0  0  0  0  0  0
  -15.4650   35.0680   -8.1030 H   0  0  0  0  0  0  0  0  0  0  0  0
  -16.0820   33.6330   -9.5110 N   0  0  0  0  0  0  0  0  0  0  0  0
  -15.9820   33.3200  -10.4650 H   0  0  0  0  0  0  0  0  0  0  0  0
  -16.9990   33.0370   -8.7270 C   0  0  0  0  0  0  0  0  0  0  0  0
  -17.1900   33.3280   -7.5450 O   0  0  0  0  0  0  0  0  0  0  0  0
  -17.8180   31.9290   -9.4160 C   0  0  0  0  0  0  0  0  0  0  0  0
  -17.1600   31.1060   -9.6980 H   0  0  0  0  0  0  0  0  0  0  0  0
  -18.5860   31.5510   -8.7390 H   0  0  0  0  0  0  0  0  0  0  0  0
  -14.1570   37.9020  -10.9080 O   0  0  0  0  0  0  0  0  0  0  0  0
  -14.2460   39.3130  -10.5030 C   0  0  2  0  0  0  0  0  0  0  0  0
  -13.5030   39.5120   -9.7290 H   0  0  0  0  0  0  0  0  0  0  0  0
  -15.5910   39.6270   -9.9780 O   0  0  0  0  0  0  0  0  0  0  0  0
  -15.8250   41.0330   -9.5840 C   0  0  2  0  0  0  0  0  0  0  0  0
  -15.0870   41.3160   -8.8290 H   0  0  0  0  0  0  0  0  0  0  0  0
  -17.2270   41.1270   -8.9690 C   0  0  0  0  0  0  0  0  0  0  0  0
  -17.9810   40.7750   -9.6730 H   0  0  0  0  0  0  0  0  0  0  0  0
  -17.4580   42.1580   -8.7010 H   0  0  0  0  0  0  0  0  0  0  0  0
  -17.2680   40.3240   -7.7820 O   0  0  0  0  0  0  0  0  0  0  0  0
  -17.0620   39.4130   -8.0060 H   0  0  0  0  0  0  0  0  0  0  0  0
  -15.6240   41.9020  -10.8370 C   0  0  2  0  0  0  0  0  0  0  0  0
  -16.3870   41.6430  -11.5760 H   0  0  0  0  0  0  0  0  0  0  0  0
  -10.2130   40.2480  -13.4410 H   0  0  0  0  0  0  0  0  0  0  0  0
  -14.2340   41.6790  -11.4530 C   0  0  2  0  0  0  0  0  0  0  0  0
  -13.4720   42.0710  -10.7760 H   0  0  0  0  0  0  0  0  0  0  0  0
  -14.1710   42.4040  -12.6960 O   0  0  0  0  0  0  0  0  0  0  0  0
  -13.3060   42.2820  -13.0940 H   0  0  0  0  0  0  0  0  0  0  0  0
  -13.9630   40.1900  -11.7370 C   0  0  1  0  0  0  0  0  0  0  0  0
  -14.6230   39.8640  -12.5440 H   0  0  0  0  0  0  0  0  0  0  0  0
  -12.5650   40.0060  -12.1470 N   0  0  0  0  0  0  0  0  0  0  0  0
  -11.8700   40.4250  -11.5450 H   0  0  0  0  0  0  0  0  0  0  0  0
  -12.1530   39.3010  -13.2150 C   0  0  0  0  0  0  0  0  0  0  0  0
  -12.9140   38.7310  -14.0000 O   0  0  0  0  0  0  0  0  0  0  0  0
  -10.6250   39.2390  -13.4030 C   0  0  0  0  0  0  0  0  0  0  0  0
  -10.1740   38.6960  -12.5700 H   0  0  0  0  0  0  0  0  0  0  0  0
  -10.3790   38.7240  -14.3330 H   0  0  0  0  0  0  0  0  0  0  0  0
  -15.7400   43.3200  -10.4500 O   0  0  0  0  0  0  0  0  0  0  0  0
  -16.9530   44.0040  -10.9260 C   0  0  2  0  0  0  0  0  0  0  0  0
  -17.8210   43.3740  -10.7260 H   0  0  0  0  0  0  0  0  0  0  0  0
  -16.8720   44.2770  -12.3730 O   0  0  0  0  0  0  0  0  0  0  0  0
  -18.0420   44.9540  -12.9720 C   0  0  2  0  0  0  0  0  0  0  0  0
  -18.9270   44.3370  -12.7980 H   0  0  0  0  0  0  0  0  0  0  0  0
  -17.7960   45.0650  -14.4820 C   0  0  0  0  0  0  0  0  0  0  0  0
  -16.8650   45.5960  -14.6830 H   0  0  0  0  0  0  0  0  0  0  0  0
  -18.6120   45.6050  -14.9640 H   0  0  0  0  0  0  0  0  0  0  0  0
  -17.7220   43.7450  -15.0390 O   0  0  0  0  0  0  0  0  0  0  0  0
  -17.0080   43.2610  -14.6180 H   0  0  0  0  0  0  0  0  0  0  0  0
  -18.2230   46.3110  -12.2630 C   0  0  1  0  0  0  0  0  0  0  0  0
  -17.4090   46.9820  -12.5480 H   0  0  0  0  0  0  0  0  0  0  0  0
  -19.4740   46.8720  -12.6990 O   0  0  0  0  0  0  0  0  0  0  0  0
  -19.6090   47.7210  -12.2720 H   0  0  0  0  0  0  0  0  0  0  0  0
  -18.2750   46.1680  -10.7290 C   0  0  2  0  0  0  0  0  0  0  0  0
  -19.2160   45.6960  -10.4390 H   0  0  0  0  0  0  0  0  0  0  0  0
  -18.2120   47.4840  -10.1490 O   0  0  0  0  0  0  0  0  0  0  0  0
  -18.2450   47.4140   -9.1930 H   0  0  0  0  0  0  0  0  0  0  0  0
  -17.0980   45.3400  -10.1780 C   0  0  1  0  0  0  0  0  0  0  0  0
  -16.1740   45.9090  -10.3120 H   0  0  0  0  0  0  0  0  0  0  0  0
  -17.3020   45.0740   -8.7470 N   0  0  0  0  0  0  0  0  0  0  0  0
  -18.2140   44.7250   -8.4890 H   0  0  0  0  0  0  0  0  0  0  0  0
  -16.3680   45.2120   -7.7890 C   0  0  0  0  0  0  0  0  0  0  0  0
  -15.2180   45.6040   -7.9980 O   0  0  0  0  0  0  0  0  0  0  0  0
  -16.8330   44.8320   -6.3700 C   0  0  0  0  0  0  0  0  0  0  0  0
  -17.0790   43.7700   -6.3350 H   0  0  0  0  0  0  0  0  0  0  0  0
  -16.0420   45.0340   -5.6470 H   0  0  0  0  0  0  0  0  0  0  0  0
  -17.7140   45.4150   -6.0980 H   0  0  0  0  0  0  0  0  0  0  0  0
  2  1  1  0  0  0  0
  3  4  1  6  0  0  0
  3  2  1  0  0  0  0
  3  5  1  0  0  0  0
  6  7  1  6  0  0  0
  6  5  1  0  0  0  0
  6  8  1  0  0  0  0
  8  9  1  0  0  0  0
  8 11  1  0  0  0  0
 10  8  1  0  0  0  0
 11 12  1  0  0  0  0
 13 14  1  1  0  0  0
 13  6  1  0  0  0  0
 15 26  1  0  0  0  0
 16 17  1  6  0  0  0
 16 20  1  0  0  0  0
 16 13  1  0  0  0  0
 18 16  1  0  0  0  0
 19 18  1  0  0  0  0
 20 21  1  1  0  0  0
 20  3  1  0  0  0  0
 22 20  1  0  0  0  0
 23 22  1  0  0  0  0
 24 25  2  0  0  0  0
 24 22  1  0  0  0  0
 26 27  1  0  0  0  0
 26 24  1  0  0  0  0
 28 26  1  0  0  0  0
 29 13  1  0  0  0  0
 29 30  1  0  0  0  0
 30 31  1  1  0  0  0
 32 33  1  0  0  0  0
 32 30  1  0  0  0  0
 33 34  1  1  0  0  0
 35 37  1  0  0  0  0
 35 38  1  0  0  0  0
 35 33  1  0  0  0  0
 36 35  1  0  0  0  0
 39 38  1  0  0  0  0
 40 41  1  6  0  0  0
 40 33  1  0  0  0  0
 40 56  1  0  0  0  0
 40 43  1  0  0  0  0
 43 44  1  1  0  0  0
 45 43  1  0  0  0  0
 45 46  1  0  0  0  0
 47 48  1  6  0  0  0
 47 30  1  0  0  0  0
 47 43  1  0  0  0  0
 47 49  1  0  0  0  0
 49 50  1  0  0  0  0
 51 49  1  0  0  0  0
 51 53  1  0  0  0  0
 52 51  2  0  0  0  0
 53 42  1  0  0  0  0
 53 54  1  0  0  0  0
 55 53  1  0  0  0  0
 57 58  1  6  0  0  0
 57 74  1  0  0  0  0
 57 56  1  0  0  0  0
 59 57  1  0  0  0  0
 60 61  1  6  0  0  0
 60 67  1  0  0  0  0
 60 59  1  0  0  0  0
 62 60  1  0  0  0  0
 62 63  1  0  0  0  0
 64 62  1  0  0  0  0
 65 62  1  0  0  0  0
 65 66  1  0  0  0  0
 67 70  1  0  0  0  0
 67 68  1  1  0  0  0
 69 80  1  0  0  0  0
 70 71  1  6  0  0  0
 70 72  1  0  0  0  0
 70 74  1  0  0  0  0
 72 73  1  0  0  0  0
 74 76  1  0  0  0  0
 74 75  1  1  0  0  0
 76 78  1  0  0  0  0
 77 76  1  0  0  0  0
 78 79  2  0  0  0  0
 80 78  1  0  0  0  0
 80 82  1  0  0  0  0
 81 80  1  0  0  0  0
 83 84  1  0  0  0  0
 83 67  1  0  0  0  0
 84 85  1  1  0  0  0
 84 86  1  0  0  0  0
 86 87  1  0  0  0  0
 87 88  1  1  0  0  0
 87 89  1  0  0  0  0
 89 91  1  0  0  0  0
 89 92  1  0  0  0  0
 90 89  1  0  0  0  0
 93 92  1  0  0  0  0
 94 95  1  6  0  0  0
 94110  1  0  0  0  0
 94 87  1  0  0  0  0
 96107  1  0  0  0  0
 97 98  1  1  0  0  0
 97 94  1  0  0  0  0
 99 97  1  0  0  0  0
100 99  1  0  0  0  0
101102  1  6  0  0  0
101 97  1  0  0  0  0
101 84  1  0  0  0  0
103104  1  0  0  0  0
103101  1  0  0  0  0
105103  1  0  0  0  0
106105  2  0  0  0  0
107108  1  0  0  0  0
107105  1  0  0  0  0
109107  1  0  0  0  0
111110  1  0  0  0  0
111128  1  0  0  0  0
111112  1  1  0  0  0
113111  1  0  0  0  0
114113  1  0  0  0  0
114121  1  0  0  0  0
114115  1  1  0  0  0
116114  1  0  0  0  0
117116  1  0  0  0  0
118116  1  0  0  0  0
119120  1  0  0  0  0
119116  1  0  0  0  0
121122  1  6  0  0  0
121124  1  0  0  0  0
124126  1  0  0  0  0
124128  1  0  0  0  0
124125  1  1  0  0  0
126127  1  0  0  0  0
128129  1  6  0  0  0
128130  1  0  0  0  0
130132  1  0  0  0  0
130131  1  0  0  0  0
132134  1  0  0  0  0
133132  2  0  0  0  0
134136  1  0  0  0  0
134135  1  0  0  0  0
134123  1  0  0  0  0
137121  1  0  0  0  0
138139  1  6  0  0  0
138140  1  0  0  0  0
138137  1  0  0  0  0
141142  1  6  0  0  0
141143  1  0  0  0  0
141140  1  0  0  0  0
143144  1  0  0  0  0
145143  1  0  0  0  0
146143  1  0  0  0  0
146147  1  0  0  0  0
148141  1  0  0  0  0
148149  1  1  0  0  0
150161  1  0  0  0  0
151152  1  6  0  0  0
151153  1  0  0  0  0
151148  1  0  0  0  0
151155  1  0  0  0  0
154153  1  0  0  0  0
155138  1  0  0  0  0
155156  1  1  0  0  0
157155  1  0  0  0  0
157159  1  0  0  0  0
158157  1  0  0  0  0
159160  2  0  0  0  0
161163  1  0  0  0  0
161159  1  0  0  0  0
162161  1  0  0  0  0
164165  1  0  0  0  0
164148  1  0  0  0  0
165167  1  0  0  0  0
165166  1  1  0  0  0
167168  1  0  0  0  0
168170  1  0  0  0  0
168169  1  1  0  0  0
170172  1  0  0  0  0
170173  1  0  0  0  0
171170  1  0  0  0  0
174173  1  0  0  0  0
175176  1  6  0  0  0
175191  1  0  0  0  0
175168  1  0  0  0  0
177188  1  0  0  0  0
178175  1  0  0  0  0
178179  1  1  0  0  0
180178  1  0  0  0  0
181180  1  0  0  0  0
182183  1  6  0  0  0
182178  1  0  0  0  0
182165  1  0  0  0  0
184182  1  0  0  0  0
184185  1  0  0  0  0
186184  1  0  0  0  0
187186  2  0  0  0  0
188186  1  0  0  0  0
188189  1  0  0  0  0
190188  1  0  0  0  0
192193  1  1  0  0  0
192191  1  0  0  0  0
192210  1  0  0  0  0
194192  1  0  0  0  0
195196  1  1  0  0  0
195194  1  0  0  0  0
195202  1  0  0  0  0
197195  1  0  0  0  0
198197  1  0  0  0  0
199197  1  0  0  0  0
200201  1  0  0  0  0
200197  1  0  0  0  0
202203  1  6  0  0  0
202206  1  0  0  0  0
204205  1  0  0  0  0
204202  1  0  0  0  0
206207  1  1  0  0  0
206210  1  0  0  0  0
206208  1  0  0  0  0
208209  1  0  0  0  0
210211  1  6  0  0  0
210212  1  0  0  0  0
212213  1  0  0  0  0
212214  1  0  0  0  0
214216  1  0  0  0  0
215214  2  0  0  0  0
216217  1  0  0  0  0
216219  1  0  0  0  0
216218  1  0  0  0  0
M  END
$$$$
