C:\Users\eirik\OneDrive - Norwegian University of Life Sciences\Documents\Masteroppgave\glycam\NAG_kitin\pdb\DGlcpNAcb1-4DGlcpNAcb1-4DGlcpNAcb1-4DGlcpNAcb1-4DGlcpNAcb1-4DGlcpNAcb1-OH_structure_min-gas.pdb DGlcpNAcb1-4DGlcpNAcb1-4DGlcpNAcb1-4DGlcpNAcb1-4DGlcpNAcb1-4DGlcpNAcb1-OH_structure_min-gas.pdb
 OpenBabel01122616563D

165170  0  0  1  0  0  0  0  0999 V2000
   -3.4770    9.1470   -1.3130 H   0  0  0  0  0  0  0  0  0  0  0  0
   -3.9960    9.4450   -2.0640 O   0  0  0  0  0  0  0  0  0  0  0  0
   -3.7320   10.8340   -2.3070 C   0  0  2  0  0  0  0  0  0  0  0  0
   -2.6690   10.9540   -2.5220 H   0  0  0  0  0  0  0  0  0  0  0  0
   -4.0710   11.6440   -1.1200 O   0  0  0  0  0  0  0  0  0  0  0  0
   -3.8690   13.1060   -1.2480 C   0  0  2  0  0  0  0  0  0  0  0  0
   -2.8190   13.2960   -1.4820 H   0  0  0  0  0  0  0  0  0  0  0  0
   -4.2060   13.7580    0.0990 C   0  0  0  0  0  0  0  0  0  0  0  0
   -5.2240   13.5100    0.4030 H   0  0  0  0  0  0  0  0  0  0  0  0
   -4.1210   14.8430    0.0300 H   0  0  0  0  0  0  0  0  0  0  0  0
   -3.2830   13.2860    1.0880 O   0  0  0  0  0  0  0  0  0  0  0  0
   -3.3520   12.3310    1.1590 H   0  0  0  0  0  0  0  0  0  0  0  0
   -4.7420   13.6100   -2.4110 C   0  0  2  0  0  0  0  0  0  0  0  0
   -5.7960   13.5040   -2.1390 H   0  0  0  0  0  0  0  0  0  0  0  0
   -3.7430   10.1120   -7.3770 H   0  0  0  0  0  0  0  0  0  0  0  0
   -4.4690   12.8280   -3.7060 C   0  0  2  0  0  0  0  0  0  0  0  0
   -3.4700   13.0760   -4.0720 H   0  0  0  0  0  0  0  0  0  0  0  0
   -5.4390   13.2380   -4.6880 O   0  0  0  0  0  0  0  0  0  0  0  0
   -5.2820   12.7650   -5.5090 H   0  0  0  0  0  0  0  0  0  0  0  0
   -4.5810   11.3050   -3.5050 C   0  0  1  0  0  0  0  0  0  0  0  0
   -5.6260   11.0560   -3.3040 H   0  0  0  0  0  0  0  0  0  0  0  0
   -4.1420   10.6140   -4.7270 N   0  0  0  0  0  0  0  0  0  0  0  0
   -3.1550   10.6730   -4.9360 H   0  0  0  0  0  0  0  0  0  0  0  0
   -4.9440    9.9500   -5.5780 C   0  0  0  0  0  0  0  0  0  0  0  0
   -6.1620    9.8320   -5.4280 O   0  0  0  0  0  0  0  0  0  0  0  0
   -4.2300    9.3290   -6.7940 C   0  0  0  0  0  0  0  0  0  0  0  0
   -3.4800    8.6120   -6.4570 H   0  0  0  0  0  0  0  0  0  0  0  0
   -4.9480    8.8130   -7.4320 H   0  0  0  0  0  0  0  0  0  0  0  0
   -4.4070   15.0250   -2.6540 O   0  0  0  0  0  0  0  0  0  0  0  0
   -5.4770   15.9990   -2.3890 C   0  0  2  0  0  0  0  0  0  0  0  0
   -5.9160   15.7950   -1.4110 H   0  0  0  0  0  0  0  0  0  0  0  0
   -6.5310   15.9240   -3.4220 O   0  0  0  0  0  0  0  0  0  0  0  0
   -7.6360   16.9010   -3.3050 C   0  0  2  0  0  0  0  0  0  0  0  0
   -8.1130   16.7810   -2.3300 H   0  0  0  0  0  0  0  0  0  0  0  0
   -8.6610   16.5970   -4.4040 C   0  0  0  0  0  0  0  0  0  0  0  0
   -8.1940   16.6330   -5.3890 H   0  0  0  0  0  0  0  0  0  0  0  0
   -9.4740   17.3230   -4.3790 H   0  0  0  0  0  0  0  0  0  0  0  0
   -9.2060   15.2890   -4.1810 O   0  0  0  0  0  0  0  0  0  0  0  0
   -8.4970   14.6410   -4.1990 H   0  0  0  0  0  0  0  0  0  0  0  0
   -7.0210   18.3090   -3.3970 C   0  0  2  0  0  0  0  0  0  0  0  0
   -6.5870   18.4440   -4.3910 H   0  0  0  0  0  0  0  0  0  0  0  0
   -2.2660   18.5910    0.5800 H   0  0  0  0  0  0  0  0  0  0  0  0
   -5.9270   18.5100   -2.3370 C   0  0  2  0  0  0  0  0  0  0  0  0
   -6.3840   18.5240   -1.3450 H   0  0  0  0  0  0  0  0  0  0  0  0
   -5.2960   19.7810   -2.5780 O   0  0  0  0  0  0  0  0  0  0  0  0
   -4.6120   19.9290   -1.9210 H   0  0  0  0  0  0  0  0  0  0  0  0
   -4.8540   17.4080   -2.4000 C   0  0  1  0  0  0  0  0  0  0  0  0
   -4.2930   17.5230   -3.3300 H   0  0  0  0  0  0  0  0  0  0  0  0
   -3.9400   17.5380   -1.2580 N   0  0  0  0  0  0  0  0  0  0  0  0
   -4.3730   17.5400   -0.3450 H   0  0  0  0  0  0  0  0  0  0  0  0
   -2.6010   17.6280   -1.3370 C   0  0  0  0  0  0  0  0  0  0  0  0
   -1.9700   17.6210   -2.3960 O   0  0  0  0  0  0  0  0  0  0  0  0
   -1.8770   17.7390    0.0180 C   0  0  0  0  0  0  0  0  0  0  0  0
   -2.0320   16.8260    0.5950 H   0  0  0  0  0  0  0  0  0  0  0  0
   -0.8060   17.8810   -0.1350 H   0  0  0  0  0  0  0  0  0  0  0  0
   -8.0840   19.3020   -3.1560 O   0  0  0  0  0  0  0  0  0  0  0  0
   -8.4680   20.1190   -4.3180 C   0  0  2  0  0  0  0  0  0  0  0  0
   -8.6580   19.4640   -5.1700 H   0  0  0  0  0  0  0  0  0  0  0  0
   -7.4010   21.0780   -4.6700 O   0  0  0  0  0  0  0  0  0  0  0  0
   -7.6890   21.9890   -5.7990 C   0  0  2  0  0  0  0  0  0  0  0  0
   -7.9170   21.3920   -6.6850 H   0  0  0  0  0  0  0  0  0  0  0  0
   -6.4320   22.8250   -6.0710 C   0  0  0  0  0  0  0  0  0  0  0  0
   -6.1330   23.3740   -5.1780 H   0  0  0  0  0  0  0  0  0  0  0  0
   -6.6170   23.5410   -6.8720 H   0  0  0  0  0  0  0  0  0  0  0  0
   -5.3700   21.9490   -6.4720 O   0  0  0  0  0  0  0  0  0  0  0  0
   -5.2010   21.3120   -5.7740 H   0  0  0  0  0  0  0  0  0  0  0  0
   -8.9250   22.8210   -5.4190 C   0  0  2  0  0  0  0  0  0  0  0  0
   -8.6780   23.4570   -4.5650 H   0  0  0  0  0  0  0  0  0  0  0  0
  -13.3350   18.9380   -3.4170 H   0  0  0  0  0  0  0  0  0  0  0  0
  -10.1150   21.9210   -5.0500 C   0  0  2  0  0  0  0  0  0  0  0  0
  -10.4630   21.3990   -5.9450 H   0  0  0  0  0  0  0  0  0  0  0  0
  -11.1760   22.7590   -4.5560 O   0  0  0  0  0  0  0  0  0  0  0  0
  -11.9330   22.2150   -4.3270 H   0  0  0  0  0  0  0  0  0  0  0  0
   -9.7480   20.8960   -3.9610 C   0  0  1  0  0  0  0  0  0  0  0  0
   -9.5710   21.4310   -3.0260 H   0  0  0  0  0  0  0  0  0  0  0  0
  -10.8540   19.9460   -3.7800 N   0  0  0  0  0  0  0  0  0  0  0  0
  -11.1610   19.4640   -4.6120 H   0  0  0  0  0  0  0  0  0  0  0  0
  -11.4540   19.6630   -2.6110 C   0  0  0  0  0  0  0  0  0  0  0  0
  -11.1490   20.1810   -1.5340 O   0  0  0  0  0  0  0  0  0  0  0  0
  -12.5810   18.6150   -2.6970 C   0  0  0  0  0  0  0  0  0  0  0  0
  -12.1680   17.6560   -3.0130 H   0  0  0  0  0  0  0  0  0  0  0  0
  -13.0570   18.4910   -1.7240 H   0  0  0  0  0  0  0  0  0  0  0  0
   -9.3130   23.6420   -6.5810 O   0  0  0  0  0  0  0  0  0  0  0  0
   -9.1030   25.0910   -6.4360 C   0  0  2  0  0  0  0  0  0  0  0  0
   -8.0880   25.2720   -6.0760 H   0  0  0  0  0  0  0  0  0  0  0  0
  -10.0680   25.6730   -5.4820 O   0  0  0  0  0  0  0  0  0  0  0  0
   -9.9840   27.1360   -5.2820 C   0  0  2  0  0  0  0  0  0  0  0  0
   -8.9750   27.3890   -4.9470 H   0  0  0  0  0  0  0  0  0  0  0  0
  -10.9850   27.5280   -4.1880 C   0  0  0  0  0  0  0  0  0  0  0  0
  -11.9940   27.2160   -4.4600 H   0  0  0  0  0  0  0  0  0  0  0  0
  -10.9840   28.6080   -4.0390 H   0  0  0  0  0  0  0  0  0  0  0  0
  -10.6030   26.8930   -2.9610 O   0  0  0  0  0  0  0  0  0  0  0  0
  -10.5960   25.9410   -3.0820 H   0  0  0  0  0  0  0  0  0  0  0  0
  -10.2460   27.8060   -6.6420 C   0  0  2  0  0  0  0  0  0  0  0  0
  -11.2740   27.5970   -6.9500 H   0  0  0  0  0  0  0  0  0  0  0  0
   -6.6200   25.0620  -10.8760 H   0  0  0  0  0  0  0  0  0  0  0  0
   -9.2800   27.2860   -7.7190 C   0  0  2  0  0  0  0  0  0  0  0  0
   -8.2690   27.6320   -7.4930 H   0  0  0  0  0  0  0  0  0  0  0  0
   -9.6870   27.8310   -8.9870 O   0  0  0  0  0  0  0  0  0  0  0  0
   -9.0900   27.5230   -9.6740 H   0  0  0  0  0  0  0  0  0  0  0  0
   -9.2940   25.7490   -7.8140 C   0  0  1  0  0  0  0  0  0  0  0  0
  -10.2610   25.4330   -8.2110 H   0  0  0  0  0  0  0  0  0  0  0  0
   -8.2250   25.2980   -8.7160 N   0  0  0  0  0  0  0  0  0  0  0  0
   -7.2970   25.6340   -8.5020 H   0  0  0  0  0  0  0  0  0  0  0  0
   -8.3860   24.4680   -9.7620 C   0  0  0  0  0  0  0  0  0  0  0  0
   -9.4690   23.9860  -10.1000 O   0  0  0  0  0  0  0  0  0  0  0  0
   -7.0940   24.1410  -10.5340 C   0  0  0  0  0  0  0  0  0  0  0  0
   -6.4040   23.5990   -9.8850 H   0  0  0  0  0  0  0  0  0  0  0  0
   -7.3200   23.5200  -11.4030 H   0  0  0  0  0  0  0  0  0  0  0  0
  -10.0330   29.2580   -6.4970 O   0  0  0  0  0  0  0  0  0  0  0  0
  -11.2420   30.0920   -6.5830 C   0  0  2  0  0  0  0  0  0  0  0  0
  -12.0110   29.6810   -5.9270 H   0  0  0  0  0  0  0  0  0  0  0  0
  -11.7560   30.1360   -7.9670 O   0  0  0  0  0  0  0  0  0  0  0  0
  -12.9430   30.9880   -8.1960 C   0  0  2  0  0  0  0  0  0  0  0  0
  -13.7510   30.6530   -7.5420 H   0  0  0  0  0  0  0  0  0  0  0  0
  -13.3800   30.8150   -9.6560 C   0  0  0  0  0  0  0  0  0  0  0  0
  -12.5650   31.0670  -10.3350 H   0  0  0  0  0  0  0  0  0  0  0  0
  -14.2300   31.4590   -9.8790 H   0  0  0  0  0  0  0  0  0  0  0  0
  -13.7710   29.4510   -9.8640 O   0  0  0  0  0  0  0  0  0  0  0  0
  -13.0300   28.8730   -9.6660 H   0  0  0  0  0  0  0  0  0  0  0  0
  -12.5550   32.4290   -7.8220 C   0  0  2  0  0  0  0  0  0  0  0  0
  -11.7750   32.7780   -8.5040 H   0  0  0  0  0  0  0  0  0  0  0  0
   -9.8700   32.2830   -2.2100 H   0  0  0  0  0  0  0  0  0  0  0  0
  -12.0310   32.5090   -6.3790 C   0  0  2  0  0  0  0  0  0  0  0  0
  -12.8490   32.3030   -5.6850 H   0  0  0  0  0  0  0  0  0  0  0  0
  -11.5490   33.8450   -6.1490 O   0  0  0  0  0  0  0  0  0  0  0  0
  -11.2220   33.9170   -5.2490 H   0  0  0  0  0  0  0  0  0  0  0  0
  -10.8780   31.5180   -6.1310 C   0  0  1  0  0  0  0  0  0  0  0  0
  -10.0090   31.8460   -6.7070 H   0  0  0  0  0  0  0  0  0  0  0  0
  -10.5360   31.4980   -4.7030 N   0  0  0  0  0  0  0  0  0  0  0  0
  -11.3070   31.3500   -4.0670 H   0  0  0  0  0  0  0  0  0  0  0  0
   -9.2960   31.6230   -4.1970 C   0  0  0  0  0  0  0  0  0  0  0  0
   -8.2850   31.7860   -4.8820 O   0  0  0  0  0  0  0  0  0  0  0  0
   -9.2110   31.5400   -2.6610 C   0  0  0  0  0  0  0  0  0  0  0  0
   -9.5090   30.5440   -2.3290 H   0  0  0  0  0  0  0  0  0  0  0  0
   -8.1890   31.7300   -2.3280 H   0  0  0  0  0  0  0  0  0  0  0  0
  -13.7540   33.2820   -7.9280 O   0  0  0  0  0  0  0  0  0  0  0  0
  -13.7490   34.2390   -9.0460 C   0  0  2  0  0  0  0  0  0  0  0  0
  -13.4440   33.7230   -9.9580 H   0  0  0  0  0  0  0  0  0  0  0  0
  -12.8200   35.3550   -8.7830 O   0  0  0  0  0  0  0  0  0  0  0  0
  -12.7210   36.3800   -9.8440 C   0  0  2  0  0  0  0  0  0  0  0  0
  -12.4020   35.8930  -10.7690 H   0  0  0  0  0  0  0  0  0  0  0  0
  -11.6530   37.3940   -9.4160 C   0  0  0  0  0  0  0  0  0  0  0  0
  -11.8980   37.8270   -8.4460 H   0  0  0  0  0  0  0  0  0  0  0  0
  -11.5780   38.2010  -10.1450 H   0  0  0  0  0  0  0  0  0  0  0  0
  -10.3860   36.7270   -9.3330 O   0  0  0  0  0  0  0  0  0  0  0  0
  -10.4430   36.0120   -8.6940 H   0  0  0  0  0  0  0  0  0  0  0  0
  -14.1220   36.9920  -10.0490 C   0  0  1  0  0  0  0  0  0  0  0  0
  -14.3850   37.5980   -9.1800 H   0  0  0  0  0  0  0  0  0  0  0  0
  -14.0670   37.8340  -11.2150 O   0  0  0  0  0  0  0  0  0  0  0  0
  -14.9280   38.2310  -11.3630 H   0  0  0  0  0  0  0  0  0  0  0  0
  -15.2000   35.9180  -10.2890 C   0  0  2  0  0  0  0  0  0  0  0  0
  -15.0600   35.4740  -11.2770 H   0  0  0  0  0  0  0  0  0  0  0  0
  -16.4910   36.5550  -10.2390 O   0  0  0  0  0  0  0  0  0  0  0  0
  -17.1770   35.9000  -10.3880 H   0  0  0  0  0  0  0  0  0  0  0  0
  -15.1680   34.8070   -9.2210 C   0  0  1  0  0  0  0  0  0  0  0  0
  -15.4870   35.2290   -8.2650 H   0  0  0  0  0  0  0  0  0  0  0  0
  -16.0810   33.7210   -9.6030 N   0  0  0  0  0  0  0  0  0  0  0  0
  -15.9900   33.3810  -10.5490 H   0  0  0  0  0  0  0  0  0  0  0  0
  -16.9750   33.1330   -8.7880 C   0  0  0  0  0  0  0  0  0  0  0  0
  -17.1490   33.4530   -7.6100 O   0  0  0  0  0  0  0  0  0  0  0  0
  -17.7890   31.9950   -9.4310 C   0  0  0  0  0  0  0  0  0  0  0  0
  -17.1230   31.1790   -9.7130 H   0  0  0  0  0  0  0  0  0  0  0  0
  -18.5320   31.6170   -8.7270 H   0  0  0  0  0  0  0  0  0  0  0  0
  -18.3050   32.3630  -10.3200 H   0  0  0  0  0  0  0  0  0  0  0  0
  2  1  1  0  0  0  0
  3  4  1  6  0  0  0
  3  2  1  0  0  0  0
  3  5  1  0  0  0  0
  6  7  1  6  0  0  0
  6  5  1  0  0  0  0
  6  8  1  0  0  0  0
  8  9  1  0  0  0  0
  8 11  1  0  0  0  0
 10  8  1  0  0  0  0
 11 12  1  0  0  0  0
 13 14  1  1  0  0  0
 13  6  1  0  0  0  0
 15 26  1  0  0  0  0
 16 17  1  6  0  0  0
 16 20  1  0  0  0  0
 16 13  1  0  0  0  0
 18 16  1  0  0  0  0
 19 18  1  0  0  0  0
 20 21  1  1  0  0  0
 20  3  1  0  0  0  0
 22 20  1  0  0  0  0
 23 22  1  0  0  0  0
 24 25  2  0  0  0  0
 24 22  1  0  0  0  0
 26 27  1  0  0  0  0
 26 24  1  0  0  0  0
 28 26  1  0  0  0  0
 29 13  1  0  0  0  0
 29 30  1  0  0  0  0
 30 31  1  1  0  0  0
 32 33  1  0  0  0  0
 32 30  1  0  0  0  0
 33 34  1  1  0  0  0
 35 37  1  0  0  0  0
 35 38  1  0  0  0  0
 35 33  1  0  0  0  0
 36 35  1  0  0  0  0
 39 38  1  0  0  0  0
 40 41  1  6  0  0  0
 40 33  1  0  0  0  0
 40 56  1  0  0  0  0
 40 43  1  0  0  0  0
 43 44  1  1  0  0  0
 45 43  1  0  0  0  0
 45 46  1  0  0  0  0
 47 48  1  6  0  0  0
 47 30  1  0  0  0  0
 47 43  1  0  0  0  0
 47 49  1  0  0  0  0
 49 50  1  0  0  0  0
 51 49  1  0  0  0  0
 51 53  1  0  0  0  0
 52 51  2  0  0  0  0
 53 42  1  0  0  0  0
 53 54  1  0  0  0  0
 55 53  1  0  0  0  0
 57 58  1  6  0  0  0
 57 74  1  0  0  0  0
 57 56  1  0  0  0  0
 59 57  1  0  0  0  0
 60 61  1  6  0  0  0
 60 67  1  0  0  0  0
 60 59  1  0  0  0  0
 62 60  1  0  0  0  0
 62 63  1  0  0  0  0
 64 62  1  0  0  0  0
 65 62  1  0  0  0  0
 65 66  1  0  0  0  0
 67 70  1  0  0  0  0
 67 68  1  1  0  0  0
 69 80  1  0  0  0  0
 70 71  1  6  0  0  0
 70 72  1  0  0  0  0
 70 74  1  0  0  0  0
 72 73  1  0  0  0  0
 74 76  1  0  0  0  0
 74 75  1  1  0  0  0
 76 78  1  0  0  0  0
 77 76  1  0  0  0  0
 78 79  2  0  0  0  0
 80 78  1  0  0  0  0
 80 82  1  0  0  0  0
 81 80  1  0  0  0  0
 83 84  1  0  0  0  0
 83 67  1  0  0  0  0
 84 85  1  1  0  0  0
 84 86  1  0  0  0  0
 86 87  1  0  0  0  0
 87 88  1  1  0  0  0
 87 89  1  0  0  0  0
 89 91  1  0  0  0  0
 89 92  1  0  0  0  0
 90 89  1  0  0  0  0
 93 92  1  0  0  0  0
 94 95  1  6  0  0  0
 94110  1  0  0  0  0
 94 87  1  0  0  0  0
 96107  1  0  0  0  0
 97 98  1  1  0  0  0
 97 94  1  0  0  0  0
 99 97  1  0  0  0  0
100 99  1  0  0  0  0
101102  1  6  0  0  0
101 97  1  0  0  0  0
101 84  1  0  0  0  0
103104  1  0  0  0  0
103101  1  0  0  0  0
105103  1  0  0  0  0
106105  2  0  0  0  0
107108  1  0  0  0  0
107105  1  0  0  0  0
109107  1  0  0  0  0
111110  1  0  0  0  0
111128  1  0  0  0  0
111112  1  1  0  0  0
113111  1  0  0  0  0
114113  1  0  0  0  0
114121  1  0  0  0  0
114115  1  1  0  0  0
116114  1  0  0  0  0
117116  1  0  0  0  0
118116  1  0  0  0  0
119120  1  0  0  0  0
119116  1  0  0  0  0
121122  1  6  0  0  0
121124  1  0  0  0  0
124126  1  0  0  0  0
124128  1  0  0  0  0
124125  1  1  0  0  0
126127  1  0  0  0  0
128129  1  6  0  0  0
128130  1  0  0  0  0
130132  1  0  0  0  0
130131  1  0  0  0  0
132134  1  0  0  0  0
133132  2  0  0  0  0
134135  1  0  0  0  0
134136  1  0  0  0  0
134123  1  0  0  0  0
137121  1  0  0  0  0
138139  1  6  0  0  0
138140  1  0  0  0  0
138137  1  0  0  0  0
141142  1  6  0  0  0
141143  1  0  0  0  0
141140  1  0  0  0  0
143146  1  0  0  0  0
143144  1  0  0  0  0
145143  1  0  0  0  0
146147  1  0  0  0  0
148141  1  0  0  0  0
148149  1  1  0  0  0
150148  1  0  0  0  0
151150  1  0  0  0  0
152153  1  6  0  0  0
152154  1  0  0  0  0
152148  1  0  0  0  0
152156  1  0  0  0  0
155154  1  0  0  0  0
156138  1  0  0  0  0
156157  1  1  0  0  0
158156  1  0  0  0  0
158160  1  0  0  0  0
159158  1  0  0  0  0
160161  2  0  0  0  0
162160  1  0  0  0  0
162164  1  0  0  0  0
163162  1  0  0  0  0
165162  1  0  0  0  0
M  END
