C:\Users\eirik\OneDrive - Norwegian University of Life Sciences\Documents\Masteroppgave\glycam\NAG_kitin\pdb\DGlcpNAcb1-4DGlcpNAcb1-4DGlcpNAcb1-4DGlcpNAcb1-4DGlcpNAcb1-4DGlcpNAcb1-4DGlcpNAcb1-OH_structure_min-gas.pdb DGlcpNAcb1-4DGlcpNAcb1-4DGlcpNAcb1-4DGlcpNAcb1-4DGlcpNAcb1-4DGlcpNAcb1-4DGlcpNAcb1-OH_structure_min-gas.pdb
 OpenBabel01122616573D

192198  0  0  1  0  0  0  0  0999 V2000
   -3.4570    9.1070   -1.3130 H   0  0  0  0  0  0  0  0  0  0  0  0
   -3.9760    9.4070   -2.0620 O   0  0  0  0  0  0  0  0  0  0  0  0
   -3.7130   10.7970   -2.3010 C   0  0  2  0  0  0  0  0  0  0  0  0
   -2.6510   10.9190   -2.5170 H   0  0  0  0  0  0  0  0  0  0  0  0
   -4.0510   11.6030   -1.1110 O   0  0  0  0  0  0  0  0  0  0  0  0
   -3.8510   13.0650   -1.2340 C   0  0  2  0  0  0  0  0  0  0  0  0
   -2.8010   13.2570   -1.4700 H   0  0  0  0  0  0  0  0  0  0  0  0
   -4.1870   13.7140    0.1140 C   0  0  0  0  0  0  0  0  0  0  0  0
   -5.2040   13.4640    0.4200 H   0  0  0  0  0  0  0  0  0  0  0  0
   -4.1030   14.7990    0.0490 H   0  0  0  0  0  0  0  0  0  0  0  0
   -3.2620   13.2390    1.1010 O   0  0  0  0  0  0  0  0  0  0  0  0
   -3.3310   12.2840    1.1700 H   0  0  0  0  0  0  0  0  0  0  0  0
   -4.7260   13.5720   -2.3940 C   0  0  2  0  0  0  0  0  0  0  0  0
   -5.7790   13.4640   -2.1210 H   0  0  0  0  0  0  0  0  0  0  0  0
   -3.7300   10.0960   -7.3740 H   0  0  0  0  0  0  0  0  0  0  0  0
   -4.4550   12.7950   -3.6930 C   0  0  2  0  0  0  0  0  0  0  0  0
   -3.4570   13.0450   -4.0590 H   0  0  0  0  0  0  0  0  0  0  0  0
   -5.4260   13.2070   -4.6720 O   0  0  0  0  0  0  0  0  0  0  0  0
   -5.2700   12.7380   -5.4950 H   0  0  0  0  0  0  0  0  0  0  0  0
   -4.5650   11.2710   -3.4970 C   0  0  1  0  0  0  0  0  0  0  0  0
   -5.6090   11.0210   -3.2940 H   0  0  0  0  0  0  0  0  0  0  0  0
   -4.1270   10.5850   -4.7210 N   0  0  0  0  0  0  0  0  0  0  0  0
   -3.1410   10.6420   -4.9300 H   0  0  0  0  0  0  0  0  0  0  0  0
   -4.9320    9.9270   -5.5760 C   0  0  0  0  0  0  0  0  0  0  0  0
   -6.1500    9.8120   -5.4260 O   0  0  0  0  0  0  0  0  0  0  0  0
   -4.2190    9.3110   -6.7950 C   0  0  0  0  0  0  0  0  0  0  0  0
   -3.4710    8.5900   -6.4610 H   0  0  0  0  0  0  0  0  0  0  0  0
   -4.9390    8.7990   -7.4350 H   0  0  0  0  0  0  0  0  0  0  0  0
   -4.3940   14.9880   -2.6330 O   0  0  0  0  0  0  0  0  0  0  0  0
   -5.4650   15.9600   -2.3680 C   0  0  2  0  0  0  0  0  0  0  0  0
   -5.9030   15.7560   -1.3890 H   0  0  0  0  0  0  0  0  0  0  0  0
   -6.5210   15.8810   -3.3990 O   0  0  0  0  0  0  0  0  0  0  0  0
   -7.6270   16.8560   -3.2850 C   0  0  2  0  0  0  0  0  0  0  0  0
   -8.1030   16.7370   -2.3090 H   0  0  0  0  0  0  0  0  0  0  0  0
   -8.6530   16.5490   -4.3820 C   0  0  0  0  0  0  0  0  0  0  0  0
   -8.1860   16.5830   -5.3670 H   0  0  0  0  0  0  0  0  0  0  0  0
   -9.4660   17.2740   -4.3590 H   0  0  0  0  0  0  0  0  0  0  0  0
   -9.1950   15.2410   -4.1570 O   0  0  0  0  0  0  0  0  0  0  0  0
   -8.4860   14.5940   -4.1740 H   0  0  0  0  0  0  0  0  0  0  0  0
   -7.0140   18.2640   -3.3800 C   0  0  2  0  0  0  0  0  0  0  0  0
   -6.5790   18.3970   -4.3740 H   0  0  0  0  0  0  0  0  0  0  0  0
   -2.2650   18.5710    0.5980 H   0  0  0  0  0  0  0  0  0  0  0  0
   -5.9210   18.4700   -2.3190 C   0  0  2  0  0  0  0  0  0  0  0  0
   -6.3780   18.4840   -1.3270 H   0  0  0  0  0  0  0  0  0  0  0  0
   -5.2930   19.7420   -2.5620 O   0  0  0  0  0  0  0  0  0  0  0  0
   -4.6100   19.8920   -1.9040 H   0  0  0  0  0  0  0  0  0  0  0  0
   -4.8460   17.3700   -2.3810 C   0  0  1  0  0  0  0  0  0  0  0  0
   -4.2860   17.4850   -3.3120 H   0  0  0  0  0  0  0  0  0  0  0  0
   -3.9320   17.5040   -1.2390 N   0  0  0  0  0  0  0  0  0  0  0  0
   -4.3630   17.4970   -0.3270 H   0  0  0  0  0  0  0  0  0  0  0  0
   -2.5940   17.6110   -1.3210 C   0  0  0  0  0  0  0  0  0  0  0  0
   -1.9650   17.6170   -2.3800 O   0  0  0  0  0  0  0  0  0  0  0  0
   -1.8700   17.7250    0.0340 C   0  0  0  0  0  0  0  0  0  0  0  0
   -2.0160   16.8090    0.6090 H   0  0  0  0  0  0  0  0  0  0  0  0
   -0.8000   17.8760   -0.1200 H   0  0  0  0  0  0  0  0  0  0  0  0
   -8.0780   19.2580   -3.1440 O   0  0  0  0  0  0  0  0  0  0  0  0
   -8.4560   20.0730   -4.3090 C   0  0  2  0  0  0  0  0  0  0  0  0
   -8.6470   19.4160   -5.1600 H   0  0  0  0  0  0  0  0  0  0  0  0
   -7.3830   21.0250   -4.6610 O   0  0  0  0  0  0  0  0  0  0  0  0
   -7.6620   21.9330   -5.7940 C   0  0  2  0  0  0  0  0  0  0  0  0
   -7.8920   21.3340   -6.6780 H   0  0  0  0  0  0  0  0  0  0  0  0
   -6.4010   22.7620   -6.0660 C   0  0  0  0  0  0  0  0  0  0  0  0
   -6.1020   23.3130   -5.1740 H   0  0  0  0  0  0  0  0  0  0  0  0
   -6.5790   23.4760   -6.8700 H   0  0  0  0  0  0  0  0  0  0  0  0
   -5.3420   21.8790   -6.4600 O   0  0  0  0  0  0  0  0  0  0  0  0
   -5.1790   21.2440   -5.7590 H   0  0  0  0  0  0  0  0  0  0  0  0
   -8.8960   22.7730   -5.4200 C   0  0  2  0  0  0  0  0  0  0  0  0
   -8.6480   23.4100   -4.5660 H   0  0  0  0  0  0  0  0  0  0  0  0
  -13.3350   18.9230   -3.4220 H   0  0  0  0  0  0  0  0  0  0  0  0
  -10.0920   21.8810   -5.0520 C   0  0  2  0  0  0  0  0  0  0  0  0
  -10.4400   21.3580   -5.9450 H   0  0  0  0  0  0  0  0  0  0  0  0
  -11.1490   22.7260   -4.5630 O   0  0  0  0  0  0  0  0  0  0  0  0
  -11.9100   22.1870   -4.3340 H   0  0  0  0  0  0  0  0  0  0  0  0
   -9.7330   20.8570   -3.9580 C   0  0  1  0  0  0  0  0  0  0  0  0
   -9.5550   21.3950   -3.0240 H   0  0  0  0  0  0  0  0  0  0  0  0
  -10.8440   19.9140   -3.7770 N   0  0  0  0  0  0  0  0  0  0  0  0
  -11.1480   19.4260   -4.6070 H   0  0  0  0  0  0  0  0  0  0  0  0
  -11.4550   19.6450   -2.6090 C   0  0  0  0  0  0  0  0  0  0  0  0
  -11.1560   20.1710   -1.5360 O   0  0  0  0  0  0  0  0  0  0  0  0
  -12.5860   18.6020   -2.6960 C   0  0  0  0  0  0  0  0  0  0  0  0
  -12.1770   17.6380   -3.0020 H   0  0  0  0  0  0  0  0  0  0  0  0
  -13.0690   18.4860   -1.7240 H   0  0  0  0  0  0  0  0  0  0  0  0
   -9.2750   23.5930   -6.5850 O   0  0  0  0  0  0  0  0  0  0  0  0
   -9.0550   25.0400   -6.4420 C   0  0  2  0  0  0  0  0  0  0  0  0
   -8.0390   25.2150   -6.0840 H   0  0  0  0  0  0  0  0  0  0  0  0
  -10.0150   25.6310   -5.4870 O   0  0  0  0  0  0  0  0  0  0  0  0
   -9.9230   27.0930   -5.2910 C   0  0  2  0  0  0  0  0  0  0  0  0
   -8.9120   27.3420   -4.9590 H   0  0  0  0  0  0  0  0  0  0  0  0
  -10.9200   27.4930   -4.1960 C   0  0  0  0  0  0  0  0  0  0  0  0
  -11.9310   27.1850   -4.4640 H   0  0  0  0  0  0  0  0  0  0  0  0
  -10.9140   28.5730   -4.0490 H   0  0  0  0  0  0  0  0  0  0  0  0
  -10.5380   26.8590   -2.9680 O   0  0  0  0  0  0  0  0  0  0  0  0
  -10.5370   25.9070   -3.0860 H   0  0  0  0  0  0  0  0  0  0  0  0
  -10.1850   27.7590   -6.6520 C   0  0  2  0  0  0  0  0  0  0  0  0
  -11.2140   27.5490   -6.9590 H   0  0  0  0  0  0  0  0  0  0  0  0
   -6.5700   25.0080  -10.8830 H   0  0  0  0  0  0  0  0  0  0  0  0
   -9.2210   27.2340   -7.7280 C   0  0  2  0  0  0  0  0  0  0  0  0
   -8.2090   27.5750   -7.5030 H   0  0  0  0  0  0  0  0  0  0  0  0
   -9.6260   27.7790   -8.9980 O   0  0  0  0  0  0  0  0  0  0  0  0
   -9.0300   27.4680   -9.6830 H   0  0  0  0  0  0  0  0  0  0  0  0
   -9.2430   25.6970   -7.8210 C   0  0  1  0  0  0  0  0  0  0  0  0
  -10.2130   25.3860   -8.2160 H   0  0  0  0  0  0  0  0  0  0  0  0
   -8.1780   25.2390   -8.7230 N   0  0  0  0  0  0  0  0  0  0  0  0
   -7.2460   25.5570   -8.5000 H   0  0  0  0  0  0  0  0  0  0  0  0
   -8.3490   24.4280   -9.7820 C   0  0  0  0  0  0  0  0  0  0  0  0
   -9.4380   23.9710  -10.1330 O   0  0  0  0  0  0  0  0  0  0  0  0
   -7.0580   24.0900  -10.5530 C   0  0  0  0  0  0  0  0  0  0  0  0
   -6.3790   23.5310   -9.9080 H   0  0  0  0  0  0  0  0  0  0  0  0
   -7.2900   23.4830  -11.4300 H   0  0  0  0  0  0  0  0  0  0  0  0
   -9.9730   29.2110   -6.5130 O   0  0  0  0  0  0  0  0  0  0  0  0
  -11.1830   30.0410   -6.6030 C   0  0  2  0  0  0  0  0  0  0  0  0
  -11.9510   29.6300   -5.9440 H   0  0  0  0  0  0  0  0  0  0  0  0
  -11.6990   30.0750   -7.9870 O   0  0  0  0  0  0  0  0  0  0  0  0
  -12.8960   30.9120   -8.2150 C   0  0  2  0  0  0  0  0  0  0  0  0
  -13.6980   30.5680   -7.5580 H   0  0  0  0  0  0  0  0  0  0  0  0
  -13.3350   30.7330   -9.6730 C   0  0  0  0  0  0  0  0  0  0  0  0
  -12.5250   30.9940  -10.3550 H   0  0  0  0  0  0  0  0  0  0  0  0
  -14.1920   31.3680   -9.8950 H   0  0  0  0  0  0  0  0  0  0  0  0
  -13.7100   29.3650   -9.8800 O   0  0  0  0  0  0  0  0  0  0  0  0
  -12.9630   28.7950   -9.6830 H   0  0  0  0  0  0  0  0  0  0  0  0
  -12.5260   32.3590   -7.8450 C   0  0  2  0  0  0  0  0  0  0  0  0
  -11.7610   32.7200   -8.5370 H   0  0  0  0  0  0  0  0  0  0  0  0
   -9.8210   32.2770   -2.2460 H   0  0  0  0  0  0  0  0  0  0  0  0
  -11.9890   32.4500   -6.4070 C   0  0  2  0  0  0  0  0  0  0  0  0
  -12.8000   32.2420   -5.7060 H   0  0  0  0  0  0  0  0  0  0  0  0
  -11.5160   33.7920   -6.1880 O   0  0  0  0  0  0  0  0  0  0  0  0
  -11.1830   33.8720   -5.2910 H   0  0  0  0  0  0  0  0  0  0  0  0
  -10.8260   31.4710   -6.1610 C   0  0  1  0  0  0  0  0  0  0  0  0
   -9.9630   31.8020   -6.7430 H   0  0  0  0  0  0  0  0  0  0  0  0
  -10.4790   31.4610   -4.7330 N   0  0  0  0  0  0  0  0  0  0  0  0
  -11.2440   31.2960   -4.0950 H   0  0  0  0  0  0  0  0  0  0  0  0
   -9.2410   31.6180   -4.2320 C   0  0  0  0  0  0  0  0  0  0  0  0
   -8.2360   31.8060   -4.9200 O   0  0  0  0  0  0  0  0  0  0  0  0
   -9.1500   31.5430   -2.6960 C   0  0  0  0  0  0  0  0  0  0  0  0
   -9.4300   30.5440   -2.3580 H   0  0  0  0  0  0  0  0  0  0  0  0
   -8.1310   31.7530   -2.3670 H   0  0  0  0  0  0  0  0  0  0  0  0
  -13.7400   33.1900   -7.9350 O   0  0  0  0  0  0  0  0  0  0  0  0
  -13.7650   34.1650   -9.0360 C   0  0  2  0  0  0  0  0  0  0  0  0
  -13.4880   33.6650   -9.9650 H   0  0  0  0  0  0  0  0  0  0  0  0
  -12.8210   35.2720   -8.7810 O   0  0  0  0  0  0  0  0  0  0  0  0
  -12.7900   36.3490   -9.7940 C   0  0  2  0  0  0  0  0  0  0  0  0
  -12.5520   35.9130  -10.7670 H   0  0  0  0  0  0  0  0  0  0  0  0
  -11.6820   37.3360   -9.4060 C   0  0  0  0  0  0  0  0  0  0  0  0
  -11.8510   37.7310   -8.4030 H   0  0  0  0  0  0  0  0  0  0  0  0
  -11.6520   38.1710  -10.1060 H   0  0  0  0  0  0  0  0  0  0  0  0
  -10.4210   36.6570   -9.4470 O   0  0  0  0  0  0  0  0  0  0  0  0
  -10.4370   35.9160   -8.8360 H   0  0  0  0  0  0  0  0  0  0  0  0
  -14.1970   36.9700   -9.8500 C   0  0  2  0  0  0  0  0  0  0  0  0
  -14.4180   37.4400   -8.8880 H   0  0  0  0  0  0  0  0  0  0  0  0
  -18.3040   32.3190  -10.3700 H   0  0  0  0  0  0  0  0  0  0  0  0
  -15.2650   35.9040  -10.1440 C   0  0  2  0  0  0  0  0  0  0  0  0
  -15.1350   35.5340  -11.1630 H   0  0  0  0  0  0  0  0  0  0  0  0
  -16.5600   36.5230  -10.0330 O   0  0  0  0  0  0  0  0  0  0  0  0
  -17.2420   35.8730  -10.2190 H   0  0  0  0  0  0  0  0  0  0  0  0
  -15.1920   34.7290   -9.1500 C   0  0  1  0  0  0  0  0  0  0  0  0
  -15.4960   35.0890   -8.1640 H   0  0  0  0  0  0  0  0  0  0  0  0
  -16.1010   33.6570   -9.5790 N   0  0  0  0  0  0  0  0  0  0  0  0
  -16.0090   33.3590  -10.5390 H   0  0  0  0  0  0  0  0  0  0  0  0
  -16.9950   33.0330   -8.7910 C   0  0  0  0  0  0  0  0  0  0  0  0
  -17.1730   33.3030   -7.6020 O   0  0  0  0  0  0  0  0  0  0  0  0
  -17.8050   31.9210   -9.4850 C   0  0  0  0  0  0  0  0  0  0  0  0
  -17.1380   31.1100   -9.7810 H   0  0  0  0  0  0  0  0  0  0  0  0
  -18.5610   31.5250   -8.8050 H   0  0  0  0  0  0  0  0  0  0  0  0
  -14.2280   37.9700  -10.9330 O   0  0  0  0  0  0  0  0  0  0  0  0
  -14.3050   39.3720  -10.4930 C   0  0  2  0  0  0  0  0  0  0  0  0
  -13.5730   39.5400   -9.7010 H   0  0  0  0  0  0  0  0  0  0  0  0
  -15.6530   39.6930   -9.9870 O   0  0  0  0  0  0  0  0  0  0  0  0
  -15.8520   41.0770   -9.5040 C   0  0  2  0  0  0  0  0  0  0  0  0
  -15.1400   41.2690   -8.6980 H   0  0  0  0  0  0  0  0  0  0  0  0
  -17.2780   41.1780   -8.9490 C   0  0  0  0  0  0  0  0  0  0  0  0
  -18.0090   40.8970   -9.7080 H   0  0  0  0  0  0  0  0  0  0  0  0
  -17.4910   42.1970   -8.6250 H   0  0  0  0  0  0  0  0  0  0  0  0
  -17.4000   40.2990   -7.8220 O   0  0  0  0  0  0  0  0  0  0  0  0
  -17.2120   39.3990   -8.0970 H   0  0  0  0  0  0  0  0  0  0  0  0
  -15.5650   42.0370  -10.6760 C   0  0  1  0  0  0  0  0  0  0  0  0
  -16.3560   41.9470  -11.4230 H   0  0  0  0  0  0  0  0  0  0  0  0
  -15.5550   43.3770  -10.1530 O   0  0  0  0  0  0  0  0  0  0  0  0
  -15.3810   43.9970  -10.8650 H   0  0  0  0  0  0  0  0  0  0  0  0
  -14.1930   41.7720  -11.3270 C   0  0  2  0  0  0  0  0  0  0  0  0
  -13.3990   42.0880  -10.6470 H   0  0  0  0  0  0  0  0  0  0  0  0
  -14.1100   42.5470  -12.5380 O   0  0  0  0  0  0  0  0  0  0  0  0
  -13.2600   42.3950  -12.9570 H   0  0  0  0  0  0  0  0  0  0  0  0
  -13.9940   40.2870  -11.6900 C   0  0  1  0  0  0  0  0  0  0  0  0
  -14.6760   40.0290  -12.5030 H   0  0  0  0  0  0  0  0  0  0  0  0
  -12.6090   40.0610  -12.1250 N   0  0  0  0  0  0  0  0  0  0  0  0
  -11.8910   40.4410  -11.5250 H   0  0  0  0  0  0  0  0  0  0  0  0
  -12.2400   39.3620  -13.2140 C   0  0  0  0  0  0  0  0  0  0  0  0
  -13.0330   38.8370  -13.9970 O   0  0  0  0  0  0  0  0  0  0  0  0
  -10.7190   39.2480  -13.4260 C   0  0  0  0  0  0  0  0  0  0  0  0
  -10.2730   38.6900  -12.6010 H   0  0  0  0  0  0  0  0  0  0  0  0
  -10.5060   38.7250  -14.3590 H   0  0  0  0  0  0  0  0  0  0  0  0
  -10.2730   40.2430  -13.4720 H   0  0  0  0  0  0  0  0  0  0  0  0
  2  1  1  0  0  0  0
  3  4  1  6  0  0  0
  3  2  1  0  0  0  0
  3  5  1  0  0  0  0
  6  7  1  6  0  0  0
  6  5  1  0  0  0  0
  6  8  1  0  0  0  0
  8  9  1  0  0  0  0
  8 11  1  0  0  0  0
 10  8  1  0  0  0  0
 11 12  1  0  0  0  0
 13 14  1  1  0  0  0
 13  6  1  0  0  0  0
 15 26  1  0  0  0  0
 16 17  1  6  0  0  0
 16 20  1  0  0  0  0
 16 13  1  0  0  0  0
 18 16  1  0  0  0  0
 19 18  1  0  0  0  0
 20 21  1  1  0  0  0
 20  3  1  0  0  0  0
 22 20  1  0  0  0  0
 23 22  1  0  0  0  0
 24 25  2  0  0  0  0
 24 22  1  0  0  0  0
 26 27  1  0  0  0  0
 26 24  1  0  0  0  0
 28 26  1  0  0  0  0
 29 13  1  0  0  0  0
 29 30  1  0  0  0  0
 30 31  1  1  0  0  0
 32 33  1  0  0  0  0
 32 30  1  0  0  0  0
 33 34  1  1  0  0  0
 35 37  1  0  0  0  0
 35 38  1  0  0  0  0
 35 33  1  0  0  0  0
 36 35  1  0  0  0  0
 39 38  1  0  0  0  0
 40 41  1  6  0  0  0
 40 33  1  0  0  0  0
 40 56  1  0  0  0  0
 40 43  1  0  0  0  0
 43 44  1  1  0  0  0
 45 43  1  0  0  0  0
 45 46  1  0  0  0  0
 47 48  1  6  0  0  0
 47 30  1  0  0  0  0
 47 43  1  0  0  0  0
 47 49  1  0  0  0  0
 49 50  1  0  0  0  0
 51 49  1  0  0  0  0
 51 53  1  0  0  0  0
 52 51  2  0  0  0  0
 53 42  1  0  0  0  0
 53 54  1  0  0  0  0
 55 53  1  0  0  0  0
 57 58  1  6  0  0  0
 57 74  1  0  0  0  0
 57 56  1  0  0  0  0
 59 57  1  0  0  0  0
 60 61  1  6  0  0  0
 60 67  1  0  0  0  0
 60 59  1  0  0  0  0
 62 60  1  0  0  0  0
 62 63  1  0  0  0  0
 64 62  1  0  0  0  0
 65 62  1  0  0  0  0
 65 66  1  0  0  0  0
 67 70  1  0  0  0  0
 67 68  1  1  0  0  0
 69 80  1  0  0  0  0
 70 71  1  6  0  0  0
 70 72  1  0  0  0  0
 70 74  1  0  0  0  0
 72 73  1  0  0  0  0
 74 76  1  0  0  0  0
 74 75  1  1  0  0  0
 76 78  1  0  0  0  0
 77 76  1  0  0  0  0
 78 79  2  0  0  0  0
 80 78  1  0  0  0  0
 80 82  1  0  0  0  0
 81 80  1  0  0  0  0
 83 84  1  0  0  0  0
 83 67  1  0  0  0  0
 84 85  1  1  0  0  0
 84 86  1  0  0  0  0
 86 87  1  0  0  0  0
 87 88  1  1  0  0  0
 87 89  1  0  0  0  0
 89 91  1  0  0  0  0
 89 92  1  0  0  0  0
 90 89  1  0  0  0  0
 93 92  1  0  0  0  0
 94 95  1  6  0  0  0
 94110  1  0  0  0  0
 94 87  1  0  0  0  0
 96107  1  0  0  0  0
 97 98  1  1  0  0  0
 97 94  1  0  0  0  0
 99 97  1  0  0  0  0
100 99  1  0  0  0  0
101102  1  6  0  0  0
101 97  1  0  0  0  0
101 84  1  0  0  0  0
103104  1  0  0  0  0
103101  1  0  0  0  0
105103  1  0  0  0  0
106105  2  0  0  0  0
107108  1  0  0  0  0
107105  1  0  0  0  0
109107  1  0  0  0  0
111110  1  0  0  0  0
111128  1  0  0  0  0
111112  1  1  0  0  0
113111  1  0  0  0  0
114113  1  0  0  0  0
114121  1  0  0  0  0
114115  1  1  0  0  0
116114  1  0  0  0  0
117116  1  0  0  0  0
118116  1  0  0  0  0
119120  1  0  0  0  0
119116  1  0  0  0  0
121122  1  6  0  0  0
121124  1  0  0  0  0
124126  1  0  0  0  0
124128  1  0  0  0  0
124125  1  1  0  0  0
126127  1  0  0  0  0
128129  1  6  0  0  0
128130  1  0  0  0  0
130132  1  0  0  0  0
130131  1  0  0  0  0
132134  1  0  0  0  0
133132  2  0  0  0  0
134136  1  0  0  0  0
134135  1  0  0  0  0
134123  1  0  0  0  0
137121  1  0  0  0  0
138139  1  6  0  0  0
138140  1  0  0  0  0
138137  1  0  0  0  0
141142  1  6  0  0  0
141143  1  0  0  0  0
141140  1  0  0  0  0
143144  1  0  0  0  0
145143  1  0  0  0  0
146143  1  0  0  0  0
146147  1  0  0  0  0
148141  1  0  0  0  0
148149  1  1  0  0  0
150161  1  0  0  0  0
151152  1  6  0  0  0
151153  1  0  0  0  0
151148  1  0  0  0  0
151155  1  0  0  0  0
154153  1  0  0  0  0
155138  1  0  0  0  0
155156  1  1  0  0  0
157155  1  0  0  0  0
157159  1  0  0  0  0
158157  1  0  0  0  0
159160  2  0  0  0  0
161163  1  0  0  0  0
161159  1  0  0  0  0
162161  1  0  0  0  0
164165  1  0  0  0  0
164148  1  0  0  0  0
165167  1  0  0  0  0
165166  1  1  0  0  0
167168  1  0  0  0  0
168170  1  0  0  0  0
168169  1  1  0  0  0
170172  1  0  0  0  0
170173  1  0  0  0  0
171170  1  0  0  0  0
174173  1  0  0  0  0
175176  1  6  0  0  0
175177  1  0  0  0  0
175168  1  0  0  0  0
178177  1  0  0  0  0
179175  1  0  0  0  0
179180  1  1  0  0  0
181179  1  0  0  0  0
182181  1  0  0  0  0
183184  1  6  0  0  0
183179  1  0  0  0  0
183165  1  0  0  0  0
185183  1  0  0  0  0
185186  1  0  0  0  0
187185  1  0  0  0  0
188187  2  0  0  0  0
189187  1  0  0  0  0
189190  1  0  0  0  0
191189  1  0  0  0  0
192189  1  0  0  0  0
M  END
