C:\Users\eirik\OneDrive - Norwegian University of Life Sciences\Documents\Masteroppgave\glycam\NAG_kitin\pdb\DGlcpNAcb1-4DGlcpNAcb1-4DGlcpNAcb1-4DGlcpNAcb1-4DGlcpNAcb1-4DGlcpNAcb1-4DGlcpNAcb1-4DGlcpNAcb1-OH_structure_min-gas.pdb DGlcpNAcb1-4DGlcpNAcb1-4DGlcpNAcb1-4DGlcpNAcb1-4DGlcpNAcb1-4DGlcpNAcb1-4DGlcpNAcb1-4DGlcpNAcb1-OH_structure_min-gas.pdb
 OpenBabel01122616573D

219226  0  0  1  0  0  0  0  0999 V2000
   -3.4400    9.0730   -1.3130 H   0  0  0  0  0  0  0  0  0  0  0  0
   -3.9610    9.3750   -2.0610 O   0  0  0  0  0  0  0  0  0  0  0  0
   -3.6980   10.7660   -2.2960 C   0  0  2  0  0  0  0  0  0  0  0  0
   -2.6360   10.8880   -2.5140 H   0  0  0  0  0  0  0  0  0  0  0  0
   -4.0350   11.5690   -1.1040 O   0  0  0  0  0  0  0  0  0  0  0  0
   -3.8350   13.0320   -1.2230 C   0  0  2  0  0  0  0  0  0  0  0  0
   -2.7860   13.2240   -1.4590 H   0  0  0  0  0  0  0  0  0  0  0  0
   -4.1710   13.6760    0.1270 C   0  0  0  0  0  0  0  0  0  0  0  0
   -5.1870   13.4260    0.4330 H   0  0  0  0  0  0  0  0  0  0  0  0
   -4.0870   14.7610    0.0640 H   0  0  0  0  0  0  0  0  0  0  0  0
   -3.2450   13.1990    1.1120 O   0  0  0  0  0  0  0  0  0  0  0  0
   -3.3130   12.2440    1.1790 H   0  0  0  0  0  0  0  0  0  0  0  0
   -4.7120   13.5410   -2.3810 C   0  0  2  0  0  0  0  0  0  0  0  0
   -5.7650   13.4310   -2.1070 H   0  0  0  0  0  0  0  0  0  0  0  0
   -3.7200   10.0830   -7.3730 H   0  0  0  0  0  0  0  0  0  0  0  0
   -4.4410   12.7680   -3.6820 C   0  0  2  0  0  0  0  0  0  0  0  0
   -3.4440   13.0190   -4.0480 H   0  0  0  0  0  0  0  0  0  0  0  0
   -5.4140   13.1820   -4.6590 O   0  0  0  0  0  0  0  0  0  0  0  0
   -5.2580   12.7150   -5.4840 H   0  0  0  0  0  0  0  0  0  0  0  0
   -4.5510   11.2430   -3.4900 C   0  0  1  0  0  0  0  0  0  0  0  0
   -5.5950   10.9920   -3.2860 H   0  0  0  0  0  0  0  0  0  0  0  0
   -4.1150   10.5600   -4.7170 N   0  0  0  0  0  0  0  0  0  0  0  0
   -3.1290   10.6150   -4.9250 H   0  0  0  0  0  0  0  0  0  0  0  0
   -4.9220    9.9090   -5.5750 C   0  0  0  0  0  0  0  0  0  0  0  0
   -6.1400    9.7970   -5.4260 O   0  0  0  0  0  0  0  0  0  0  0  0
   -4.2100    9.2960   -6.7960 C   0  0  0  0  0  0  0  0  0  0  0  0
   -3.4630    8.5730   -6.4660 H   0  0  0  0  0  0  0  0  0  0  0  0
   -4.9310    8.7880   -7.4380 H   0  0  0  0  0  0  0  0  0  0  0  0
   -4.3800   14.9580   -2.6160 O   0  0  0  0  0  0  0  0  0  0  0  0
   -5.4540   15.9270   -2.3520 C   0  0  2  0  0  0  0  0  0  0  0  0
   -5.8900   15.7230   -1.3720 H   0  0  0  0  0  0  0  0  0  0  0  0
   -6.5100   15.8440   -3.3820 O   0  0  0  0  0  0  0  0  0  0  0  0
   -7.6180   16.8170   -3.2690 C   0  0  2  0  0  0  0  0  0  0  0  0
   -8.0940   16.6990   -2.2930 H   0  0  0  0  0  0  0  0  0  0  0  0
   -8.6430   16.5050   -4.3670 C   0  0  0  0  0  0  0  0  0  0  0  0
   -8.1770   16.5390   -5.3520 H   0  0  0  0  0  0  0  0  0  0  0  0
   -9.4580   17.2290   -4.3440 H   0  0  0  0  0  0  0  0  0  0  0  0
   -9.1830   15.1970   -4.1390 O   0  0  0  0  0  0  0  0  0  0  0  0
   -8.4720   14.5510   -4.1540 H   0  0  0  0  0  0  0  0  0  0  0  0
   -7.0080   18.2260   -3.3680 C   0  0  2  0  0  0  0  0  0  0  0  0
   -6.5720   18.3560   -4.3620 H   0  0  0  0  0  0  0  0  0  0  0  0
   -2.2640   18.5590    0.6120 H   0  0  0  0  0  0  0  0  0  0  0  0
   -5.9160   18.4370   -2.3070 C   0  0  2  0  0  0  0  0  0  0  0  0
   -6.3740   18.4510   -1.3160 H   0  0  0  0  0  0  0  0  0  0  0  0
   -5.2900   19.7100   -2.5520 O   0  0  0  0  0  0  0  0  0  0  0  0
   -4.6080   19.8620   -1.8940 H   0  0  0  0  0  0  0  0  0  0  0  0
   -4.8380   17.3390   -2.3670 C   0  0  1  0  0  0  0  0  0  0  0  0
   -4.2780   17.4540   -3.2980 H   0  0  0  0  0  0  0  0  0  0  0  0
   -3.9240   17.4770   -1.2260 N   0  0  0  0  0  0  0  0  0  0  0  0
   -4.3550   17.4620   -0.3130 H   0  0  0  0  0  0  0  0  0  0  0  0
   -2.5870   17.5990   -1.3090 C   0  0  0  0  0  0  0  0  0  0  0  0
   -1.9600   17.6170   -2.3690 O   0  0  0  0  0  0  0  0  0  0  0  0
   -1.8630   17.7160    0.0460 C   0  0  0  0  0  0  0  0  0  0  0  0
   -2.0020   16.7980    0.6190 H   0  0  0  0  0  0  0  0  0  0  0  0
   -0.7950   17.8760   -0.1090 H   0  0  0  0  0  0  0  0  0  0  0  0
   -8.0730   19.2180   -3.1360 O   0  0  0  0  0  0  0  0  0  0  0  0
   -8.4480   20.0300   -4.3040 C   0  0  2  0  0  0  0  0  0  0  0  0
   -8.6390   19.3720   -5.1530 H   0  0  0  0  0  0  0  0  0  0  0  0
   -7.3710   20.9790   -4.6570 O   0  0  0  0  0  0  0  0  0  0  0  0
   -7.6470   21.8860   -5.7920 C   0  0  2  0  0  0  0  0  0  0  0  0
   -7.8780   21.2860   -6.6760 H   0  0  0  0  0  0  0  0  0  0  0  0
   -6.3820   22.7100   -6.0640 C   0  0  0  0  0  0  0  0  0  0  0  0
   -6.0820   23.2610   -5.1730 H   0  0  0  0  0  0  0  0  0  0  0  0
   -6.5580   23.4230   -6.8700 H   0  0  0  0  0  0  0  0  0  0  0  0
   -5.3260   21.8230   -6.4570 O   0  0  0  0  0  0  0  0  0  0  0  0
   -5.1650   21.1880   -5.7550 H   0  0  0  0  0  0  0  0  0  0  0  0
   -8.8770   22.7300   -5.4190 C   0  0  2  0  0  0  0  0  0  0  0  0
   -8.6260   23.3640   -4.5640 H   0  0  0  0  0  0  0  0  0  0  0  0
  -13.3360   18.9040   -3.4270 H   0  0  0  0  0  0  0  0  0  0  0  0
  -10.0770   21.8420   -5.0520 C   0  0  2  0  0  0  0  0  0  0  0  0
  -10.4250   21.3200   -5.9460 H   0  0  0  0  0  0  0  0  0  0  0  0
  -11.1330   22.6920   -4.5670 O   0  0  0  0  0  0  0  0  0  0  0  0
  -11.8950   22.1550   -4.3390 H   0  0  0  0  0  0  0  0  0  0  0  0
   -9.7230   20.8200   -3.9570 C   0  0  1  0  0  0  0  0  0  0  0  0
   -9.5440   21.3590   -3.0230 H   0  0  0  0  0  0  0  0  0  0  0  0
  -10.8370   19.8810   -3.7750 N   0  0  0  0  0  0  0  0  0  0  0  0
  -11.1360   19.3860   -4.6030 H   0  0  0  0  0  0  0  0  0  0  0  0
  -11.4580   19.6250   -2.6100 C   0  0  0  0  0  0  0  0  0  0  0  0
  -11.1660   20.1610   -1.5390 O   0  0  0  0  0  0  0  0  0  0  0  0
  -12.5920   18.5850   -2.6950 C   0  0  0  0  0  0  0  0  0  0  0  0
  -12.1840   17.6180   -2.9930 H   0  0  0  0  0  0  0  0  0  0  0  0
  -13.0800   18.4770   -1.7250 H   0  0  0  0  0  0  0  0  0  0  0  0
   -9.2510   23.5540   -6.5820 O   0  0  0  0  0  0  0  0  0  0  0  0
   -9.0300   25.0000   -6.4310 C   0  0  2  0  0  0  0  0  0  0  0  0
   -8.0120   25.1720   -6.0750 H   0  0  0  0  0  0  0  0  0  0  0  0
   -9.9870   25.5840   -5.4690 O   0  0  0  0  0  0  0  0  0  0  0  0
   -9.8930   27.0440   -5.2620 C   0  0  2  0  0  0  0  0  0  0  0  0
   -8.8820   27.2910   -4.9320 H   0  0  0  0  0  0  0  0  0  0  0  0
  -10.8870   27.4360   -4.1620 C   0  0  0  0  0  0  0  0  0  0  0  0
  -11.8990   27.1320   -4.4290 H   0  0  0  0  0  0  0  0  0  0  0  0
  -10.8790   28.5150   -4.0070 H   0  0  0  0  0  0  0  0  0  0  0  0
  -10.5020   26.7930   -2.9390 O   0  0  0  0  0  0  0  0  0  0  0  0
  -10.5010   25.8420   -3.0650 H   0  0  0  0  0  0  0  0  0  0  0  0
  -10.1610   27.7190   -6.6180 C   0  0  2  0  0  0  0  0  0  0  0  0
  -11.1900   27.5090   -6.9230 H   0  0  0  0  0  0  0  0  0  0  0  0
   -6.5570   25.0050  -10.8810 H   0  0  0  0  0  0  0  0  0  0  0  0
   -9.2000   27.2030   -7.7010 C   0  0  2  0  0  0  0  0  0  0  0  0
   -8.1870   27.5420   -7.4760 H   0  0  0  0  0  0  0  0  0  0  0  0
   -9.6080   27.7570   -8.9660 O   0  0  0  0  0  0  0  0  0  0  0  0
   -9.0140   27.4510   -9.6550 H   0  0  0  0  0  0  0  0  0  0  0  0
   -9.2220   25.6670   -7.8050 C   0  0  1  0  0  0  0  0  0  0  0  0
  -10.1930   25.3590   -8.1990 H   0  0  0  0  0  0  0  0  0  0  0  0
   -8.1600   25.2150   -8.7130 N   0  0  0  0  0  0  0  0  0  0  0  0
   -7.2260   25.5260   -8.4880 H   0  0  0  0  0  0  0  0  0  0  0  0
   -8.3350   24.4180   -9.7830 C   0  0  0  0  0  0  0  0  0  0  0  0
   -9.4260   23.9710  -10.1390 O   0  0  0  0  0  0  0  0  0  0  0  0
   -7.0470   24.0850  -10.5600 C   0  0  0  0  0  0  0  0  0  0  0  0
   -6.3670   23.5180   -9.9220 H   0  0  0  0  0  0  0  0  0  0  0  0
   -7.2820   23.4870  -11.4420 H   0  0  0  0  0  0  0  0  0  0  0  0
   -9.9500   29.1700   -6.4690 O   0  0  0  0  0  0  0  0  0  0  0  0
  -11.1640   29.9960   -6.5500 C   0  0  2  0  0  0  0  0  0  0  0  0
  -11.9250   29.5810   -5.8870 H   0  0  0  0  0  0  0  0  0  0  0  0
  -11.6890   30.0310   -7.9300 O   0  0  0  0  0  0  0  0  0  0  0  0
  -12.8880   30.8680   -8.1490 C   0  0  2  0  0  0  0  0  0  0  0  0
  -13.6860   30.5230   -7.4880 H   0  0  0  0  0  0  0  0  0  0  0  0
  -13.3350   30.6910   -9.6060 C   0  0  0  0  0  0  0  0  0  0  0  0
  -12.5290   30.9540  -10.2920 H   0  0  0  0  0  0  0  0  0  0  0  0
  -14.1940   31.3250   -9.8210 H   0  0  0  0  0  0  0  0  0  0  0  0
  -13.7100   29.3220   -9.8120 O   0  0  0  0  0  0  0  0  0  0  0  0
  -12.9600   28.7530   -9.6210 H   0  0  0  0  0  0  0  0  0  0  0  0
  -12.5140   32.3130   -7.7790 C   0  0  2  0  0  0  0  0  0  0  0  0
  -11.7490   32.6720   -8.4720 H   0  0  0  0  0  0  0  0  0  0  0  0
   -9.8000   32.2330   -2.1900 H   0  0  0  0  0  0  0  0  0  0  0  0
  -11.9740   32.4030   -6.3430 C   0  0  2  0  0  0  0  0  0  0  0  0
  -12.7820   32.1910   -5.6390 H   0  0  0  0  0  0  0  0  0  0  0  0
  -11.5030   33.7450   -6.1220 O   0  0  0  0  0  0  0  0  0  0  0  0
  -11.1680   33.8230   -5.2260 H   0  0  0  0  0  0  0  0  0  0  0  0
  -10.8080   31.4260   -6.1050 C   0  0  1  0  0  0  0  0  0  0  0  0
   -9.9480   31.7600   -6.6900 H   0  0  0  0  0  0  0  0  0  0  0  0
  -10.4530   31.4130   -4.6790 N   0  0  0  0  0  0  0  0  0  0  0  0
  -11.2120   31.2280   -4.0390 H   0  0  0  0  0  0  0  0  0  0  0  0
   -9.2170   31.5950   -4.1820 C   0  0  0  0  0  0  0  0  0  0  0  0
   -8.2200   31.8090   -4.8730 O   0  0  0  0  0  0  0  0  0  0  0  0
   -9.1180   31.5140   -2.6470 C   0  0  0  0  0  0  0  0  0  0  0  0
   -9.3790   30.5080   -2.3130 H   0  0  0  0  0  0  0  0  0  0  0  0
   -8.1020   31.7400   -2.3210 H   0  0  0  0  0  0  0  0  0  0  0  0
  -13.7260   33.1480   -7.8680 O   0  0  0  0  0  0  0  0  0  0  0  0
  -13.7420   34.1220   -8.9690 C   0  0  2  0  0  0  0  0  0  0  0  0
  -13.4690   33.6180   -9.8990 H   0  0  0  0  0  0  0  0  0  0  0  0
  -12.7890   35.2220   -8.7150 O   0  0  0  0  0  0  0  0  0  0  0  0
  -12.7420   36.2900   -9.7360 C   0  0  2  0  0  0  0  0  0  0  0  0
  -12.5020   35.8430  -10.7040 H   0  0  0  0  0  0  0  0  0  0  0  0
  -11.6290   37.2720   -9.3500 C   0  0  0  0  0  0  0  0  0  0  0  0
  -11.8010   37.6760   -8.3520 H   0  0  0  0  0  0  0  0  0  0  0  0
  -11.5890   38.1000  -10.0570 H   0  0  0  0  0  0  0  0  0  0  0  0
  -10.3730   36.5820   -9.3770 O   0  0  0  0  0  0  0  0  0  0  0  0
  -10.3990   35.8460   -8.7610 H   0  0  0  0  0  0  0  0  0  0  0  0
  -14.1420   36.9230   -9.8060 C   0  0  2  0  0  0  0  0  0  0  0  0
  -14.3600   37.4130   -8.8540 H   0  0  0  0  0  0  0  0  0  0  0  0
  -18.3040   32.3250  -10.3090 H   0  0  0  0  0  0  0  0  0  0  0  0
  -15.2230   35.8670  -10.0890 C   0  0  2  0  0  0  0  0  0  0  0  0
  -15.0990   35.4870  -11.1050 H   0  0  0  0  0  0  0  0  0  0  0  0
  -16.5110   36.5010   -9.9820 O   0  0  0  0  0  0  0  0  0  0  0  0
  -17.2000   35.8580  -10.1630 H   0  0  0  0  0  0  0  0  0  0  0  0
  -15.1640   34.6990   -9.0870 C   0  0  1  0  0  0  0  0  0  0  0  0
  -15.4650   35.0680   -8.1030 H   0  0  0  0  0  0  0  0  0  0  0  0
  -16.0820   33.6330   -9.5110 N   0  0  0  0  0  0  0  0  0  0  0  0
  -15.9820   33.3200  -10.4650 H   0  0  0  0  0  0  0  0  0  0  0  0
  -16.9990   33.0370   -8.7270 C   0  0  0  0  0  0  0  0  0  0  0  0
  -17.1900   33.3280   -7.5450 O   0  0  0  0  0  0  0  0  0  0  0  0
  -17.8180   31.9290   -9.4160 C   0  0  0  0  0  0  0  0  0  0  0  0
  -17.1600   31.1060   -9.6980 H   0  0  0  0  0  0  0  0  0  0  0  0
  -18.5860   31.5510   -8.7390 H   0  0  0  0  0  0  0  0  0  0  0  0
  -14.1570   37.9020  -10.9080 O   0  0  0  0  0  0  0  0  0  0  0  0
  -14.2460   39.3130  -10.5030 C   0  0  2  0  0  0  0  0  0  0  0  0
  -13.5030   39.5120   -9.7290 H   0  0  0  0  0  0  0  0  0  0  0  0
  -15.5910   39.6270   -9.9780 O   0  0  0  0  0  0  0  0  0  0  0  0
  -15.8250   41.0330   -9.5840 C   0  0  2  0  0  0  0  0  0  0  0  0
  -15.0870   41.3160   -8.8290 H   0  0  0  0  0  0  0  0  0  0  0  0
  -17.2270   41.1270   -8.9690 C   0  0  0  0  0  0  0  0  0  0  0  0
  -17.9810   40.7750   -9.6730 H   0  0  0  0  0  0  0  0  0  0  0  0
  -17.4580   42.1580   -8.7010 H   0  0  0  0  0  0  0  0  0  0  0  0
  -17.2680   40.3240   -7.7820 O   0  0  0  0  0  0  0  0  0  0  0  0
  -17.0620   39.4130   -8.0060 H   0  0  0  0  0  0  0  0  0  0  0  0
  -15.6240   41.9020  -10.8370 C   0  0  2  0  0  0  0  0  0  0  0  0
  -16.3870   41.6430  -11.5760 H   0  0  0  0  0  0  0  0  0  0  0  0
  -10.2130   40.2480  -13.4410 H   0  0  0  0  0  0  0  0  0  0  0  0
  -14.2340   41.6790  -11.4530 C   0  0  2  0  0  0  0  0  0  0  0  0
  -13.4720   42.0710  -10.7760 H   0  0  0  0  0  0  0  0  0  0  0  0
  -14.1710   42.4040  -12.6960 O   0  0  0  0  0  0  0  0  0  0  0  0
  -13.3060   42.2820  -13.0940 H   0  0  0  0  0  0  0  0  0  0  0  0
  -13.9630   40.1900  -11.7370 C   0  0  1  0  0  0  0  0  0  0  0  0
  -14.6230   39.8640  -12.5440 H   0  0  0  0  0  0  0  0  0  0  0  0
  -12.5650   40.0060  -12.1470 N   0  0  0  0  0  0  0  0  0  0  0  0
  -11.8700   40.4250  -11.5450 H   0  0  0  0  0  0  0  0  0  0  0  0
  -12.1530   39.3010  -13.2150 C   0  0  0  0  0  0  0  0  0  0  0  0
  -12.9140   38.7310  -14.0000 O   0  0  0  0  0  0  0  0  0  0  0  0
  -10.6250   39.2390  -13.4030 C   0  0  0  0  0  0  0  0  0  0  0  0
  -10.1740   38.6960  -12.5700 H   0  0  0  0  0  0  0  0  0  0  0  0
  -10.3790   38.7240  -14.3330 H   0  0  0  0  0  0  0  0  0  0  0  0
  -15.7400   43.3200  -10.4500 O   0  0  0  0  0  0  0  0  0  0  0  0
  -16.9530   44.0040  -10.9260 C   0  0  2  0  0  0  0  0  0  0  0  0
  -17.8210   43.3740  -10.7260 H   0  0  0  0  0  0  0  0  0  0  0  0
  -16.8720   44.2770  -12.3730 O   0  0  0  0  0  0  0  0  0  0  0  0
  -18.0420   44.9540  -12.9720 C   0  0  2  0  0  0  0  0  0  0  0  0
  -18.9270   44.3370  -12.7980 H   0  0  0  0  0  0  0  0  0  0  0  0
  -17.7960   45.0650  -14.4820 C   0  0  0  0  0  0  0  0  0  0  0  0
  -16.8650   45.5960  -14.6830 H   0  0  0  0  0  0  0  0  0  0  0  0
  -18.6120   45.6050  -14.9640 H   0  0  0  0  0  0  0  0  0  0  0  0
  -17.7220   43.7450  -15.0390 O   0  0  0  0  0  0  0  0  0  0  0  0
  -17.0080   43.2610  -14.6180 H   0  0  0  0  0  0  0  0  0  0  0  0
  -18.2230   46.3110  -12.2630 C   0  0  1  0  0  0  0  0  0  0  0  0
  -17.4090   46.9820  -12.5480 H   0  0  0  0  0  0  0  0  0  0  0  0
  -19.4740   46.8720  -12.6990 O   0  0  0  0  0  0  0  0  0  0  0  0
  -19.6090   47.7210  -12.2720 H   0  0  0  0  0  0  0  0  0  0  0  0
  -18.2750   46.1680  -10.7290 C   0  0  2  0  0  0  0  0  0  0  0  0
  -19.2160   45.6960  -10.4390 H   0  0  0  0  0  0  0  0  0  0  0  0
  -18.2120   47.4840  -10.1490 O   0  0  0  0  0  0  0  0  0  0  0  0
  -18.2450   47.4140   -9.1930 H   0  0  0  0  0  0  0  0  0  0  0  0
  -17.0980   45.3400  -10.1780 C   0  0  1  0  0  0  0  0  0  0  0  0
  -16.1740   45.9090  -10.3120 H   0  0  0  0  0  0  0  0  0  0  0  0
  -17.3020   45.0740   -8.7470 N   0  0  0  0  0  0  0  0  0  0  0  0
  -18.2140   44.7250   -8.4890 H   0  0  0  0  0  0  0  0  0  0  0  0
  -16.3680   45.2120   -7.7890 C   0  0  0  0  0  0  0  0  0  0  0  0
  -15.2180   45.6040   -7.9980 O   0  0  0  0  0  0  0  0  0  0  0  0
  -16.8330   44.8320   -6.3700 C   0  0  0  0  0  0  0  0  0  0  0  0
  -17.0790   43.7700   -6.3350 H   0  0  0  0  0  0  0  0  0  0  0  0
  -16.0420   45.0340   -5.6470 H   0  0  0  0  0  0  0  0  0  0  0  0
  -17.7140   45.4150   -6.0980 H   0  0  0  0  0  0  0  0  0  0  0  0
  2  1  1  0  0  0  0
  3  4  1  6  0  0  0
  3  2  1  0  0  0  0
  3  5  1  0  0  0  0
  6  7  1  6  0  0  0
  6  5  1  0  0  0  0
  6  8  1  0  0  0  0
  8  9  1  0  0  0  0
  8 11  1  0  0  0  0
 10  8  1  0  0  0  0
 11 12  1  0  0  0  0
 13 14  1  1  0  0  0
 13  6  1  0  0  0  0
 15 26  1  0  0  0  0
 16 17  1  6  0  0  0
 16 20  1  0  0  0  0
 16 13  1  0  0  0  0
 18 16  1  0  0  0  0
 19 18  1  0  0  0  0
 20 21  1  1  0  0  0
 20  3  1  0  0  0  0
 22 20  1  0  0  0  0
 23 22  1  0  0  0  0
 24 25  2  0  0  0  0
 24 22  1  0  0  0  0
 26 27  1  0  0  0  0
 26 24  1  0  0  0  0
 28 26  1  0  0  0  0
 29 13  1  0  0  0  0
 29 30  1  0  0  0  0
 30 31  1  1  0  0  0
 32 33  1  0  0  0  0
 32 30  1  0  0  0  0
 33 34  1  1  0  0  0
 35 37  1  0  0  0  0
 35 38  1  0  0  0  0
 35 33  1  0  0  0  0
 36 35  1  0  0  0  0
 39 38  1  0  0  0  0
 40 41  1  6  0  0  0
 40 33  1  0  0  0  0
 40 56  1  0  0  0  0
 40 43  1  0  0  0  0
 43 44  1  1  0  0  0
 45 43  1  0  0  0  0
 45 46  1  0  0  0  0
 47 48  1  6  0  0  0
 47 30  1  0  0  0  0
 47 43  1  0  0  0  0
 47 49  1  0  0  0  0
 49 50  1  0  0  0  0
 51 49  1  0  0  0  0
 51 53  1  0  0  0  0
 52 51  2  0  0  0  0
 53 42  1  0  0  0  0
 53 54  1  0  0  0  0
 55 53  1  0  0  0  0
 57 58  1  6  0  0  0
 57 74  1  0  0  0  0
 57 56  1  0  0  0  0
 59 57  1  0  0  0  0
 60 61  1  6  0  0  0
 60 67  1  0  0  0  0
 60 59  1  0  0  0  0
 62 60  1  0  0  0  0
 62 63  1  0  0  0  0
 64 62  1  0  0  0  0
 65 62  1  0  0  0  0
 65 66  1  0  0  0  0
 67 70  1  0  0  0  0
 67 68  1  1  0  0  0
 69 80  1  0  0  0  0
 70 71  1  6  0  0  0
 70 72  1  0  0  0  0
 70 74  1  0  0  0  0
 72 73  1  0  0  0  0
 74 76  1  0  0  0  0
 74 75  1  1  0  0  0
 76 78  1  0  0  0  0
 77 76  1  0  0  0  0
 78 79  2  0  0  0  0
 80 78  1  0  0  0  0
 80 82  1  0  0  0  0
 81 80  1  0  0  0  0
 83 84  1  0  0  0  0
 83 67  1  0  0  0  0
 84 85  1  1  0  0  0
 84 86  1  0  0  0  0
 86 87  1  0  0  0  0
 87 88  1  1  0  0  0
 87 89  1  0  0  0  0
 89 91  1  0  0  0  0
 89 92  1  0  0  0  0
 90 89  1  0  0  0  0
 93 92  1  0  0  0  0
 94 95  1  6  0  0  0
 94110  1  0  0  0  0
 94 87  1  0  0  0  0
 96107  1  0  0  0  0
 97 98  1  1  0  0  0
 97 94  1  0  0  0  0
 99 97  1  0  0  0  0
100 99  1  0  0  0  0
101102  1  6  0  0  0
101 97  1  0  0  0  0
101 84  1  0  0  0  0
103104  1  0  0  0  0
103101  1  0  0  0  0
105103  1  0  0  0  0
106105  2  0  0  0  0
107108  1  0  0  0  0
107105  1  0  0  0  0
109107  1  0  0  0  0
111110  1  0  0  0  0
111128  1  0  0  0  0
111112  1  1  0  0  0
113111  1  0  0  0  0
114113  1  0  0  0  0
114121  1  0  0  0  0
114115  1  1  0  0  0
116114  1  0  0  0  0
117116  1  0  0  0  0
118116  1  0  0  0  0
119120  1  0  0  0  0
119116  1  0  0  0  0
121122  1  6  0  0  0
121124  1  0  0  0  0
124126  1  0  0  0  0
124128  1  0  0  0  0
124125  1  1  0  0  0
126127  1  0  0  0  0
128129  1  6  0  0  0
128130  1  0  0  0  0
130132  1  0  0  0  0
130131  1  0  0  0  0
132134  1  0  0  0  0
133132  2  0  0  0  0
134136  1  0  0  0  0
134135  1  0  0  0  0
134123  1  0  0  0  0
137121  1  0  0  0  0
138139  1  6  0  0  0
138140  1  0  0  0  0
138137  1  0  0  0  0
141142  1  6  0  0  0
141143  1  0  0  0  0
141140  1  0  0  0  0
143144  1  0  0  0  0
145143  1  0  0  0  0
146143  1  0  0  0  0
146147  1  0  0  0  0
148141  1  0  0  0  0
148149  1  1  0  0  0
150161  1  0  0  0  0
151152  1  6  0  0  0
151153  1  0  0  0  0
151148  1  0  0  0  0
151155  1  0  0  0  0
154153  1  0  0  0  0
155138  1  0  0  0  0
155156  1  1  0  0  0
157155  1  0  0  0  0
157159  1  0  0  0  0
158157  1  0  0  0  0
159160  2  0  0  0  0
161163  1  0  0  0  0
161159  1  0  0  0  0
162161  1  0  0  0  0
164165  1  0  0  0  0
164148  1  0  0  0  0
165167  1  0  0  0  0
165166  1  1  0  0  0
167168  1  0  0  0  0
168170  1  0  0  0  0
168169  1  1  0  0  0
170172  1  0  0  0  0
170173  1  0  0  0  0
171170  1  0  0  0  0
174173  1  0  0  0  0
175176  1  6  0  0  0
175191  1  0  0  0  0
175168  1  0  0  0  0
177188  1  0  0  0  0
178175  1  0  0  0  0
178179  1  1  0  0  0
180178  1  0  0  0  0
181180  1  0  0  0  0
182183  1  6  0  0  0
182178  1  0  0  0  0
182165  1  0  0  0  0
184182  1  0  0  0  0
184185  1  0  0  0  0
186184  1  0  0  0  0
187186  2  0  0  0  0
188186  1  0  0  0  0
188189  1  0  0  0  0
190188  1  0  0  0  0
192193  1  1  0  0  0
192191  1  0  0  0  0
192210  1  0  0  0  0
194192  1  0  0  0  0
195196  1  1  0  0  0
195194  1  0  0  0  0
195202  1  0  0  0  0
197195  1  0  0  0  0
198197  1  0  0  0  0
199197  1  0  0  0  0
200201  1  0  0  0  0
200197  1  0  0  0  0
202203  1  6  0  0  0
202206  1  0  0  0  0
204205  1  0  0  0  0
204202  1  0  0  0  0
206207  1  1  0  0  0
206210  1  0  0  0  0
206208  1  0  0  0  0
208209  1  0  0  0  0
210211  1  6  0  0  0
210212  1  0  0  0  0
212213  1  0  0  0  0
212214  1  0  0  0  0
214216  1  0  0  0  0
215214  2  0  0  0  0
216217  1  0  0  0  0
216219  1  0  0  0  0
216218  1  0  0  0  0
M  END
