C:\Users\eirik\OneDrive - Norwegian University of Life Sciences\Documents\Masteroppgave\glycam\NAG_kitin\pdb\DGlcpNAcb1-4DGlcpNAcb1-OH_structure_min-gas.pdb DGlcpNAcb1-4DGlcpNAcb1-OH_structure_min-gas.pdb
 OpenBabel01122616543D

 57 58  0  0  1  0  0  0  0  0999 V2000
   -3.3740    9.3910   -1.3560 H   0  0  0  0  0  0  0  0  0  0  0  0
   -3.9070    9.6670   -2.1050 O   0  0  0  0  0  0  0  0  0  0  0  0
   -3.6850   11.0610   -2.3620 C   0  0  2  0  0  0  0  0  0  0  0  0
   -2.6290   11.2090   -2.5910 H   0  0  0  0  0  0  0  0  0  0  0  0
   -4.0330   11.8720   -1.1790 O   0  0  0  0  0  0  0  0  0  0  0  0
   -3.8790   13.3380   -1.3210 C   0  0  2  0  0  0  0  0  0  0  0  0
   -2.8380   13.5590   -1.5690 H   0  0  0  0  0  0  0  0  0  0  0  0
   -4.2220   13.9890    0.0250 C   0  0  0  0  0  0  0  0  0  0  0  0
   -5.2270   13.7090    0.3440 H   0  0  0  0  0  0  0  0  0  0  0  0
   -4.1740   15.0750   -0.0530 H   0  0  0  0  0  0  0  0  0  0  0  0
   -3.2710   13.5560    1.0060 O   0  0  0  0  0  0  0  0  0  0  0  0
   -3.3070   12.6000    1.0860 H   0  0  0  0  0  0  0  0  0  0  0  0
   -4.7800   13.8040   -2.4790 C   0  0  2  0  0  0  0  0  0  0  0  0
   -5.8270   13.6610   -2.1960 H   0  0  0  0  0  0  0  0  0  0  0  0
   -3.7420   10.2560   -7.4130 H   0  0  0  0  0  0  0  0  0  0  0  0
   -4.4940   13.0220   -3.7710 C   0  0  2  0  0  0  0  0  0  0  0  0
   -3.5050   13.2950   -4.1460 H   0  0  0  0  0  0  0  0  0  0  0  0
   -5.4830   13.3950   -4.7480 O   0  0  0  0  0  0  0  0  0  0  0  0
   -5.3200   12.9200   -5.5660 H   0  0  0  0  0  0  0  0  0  0  0  0
   -4.5610   11.4970   -3.5550 C   0  0  1  0  0  0  0  0  0  0  0  0
   -5.5960   11.2230   -3.3370 H   0  0  0  0  0  0  0  0  0  0  0  0
   -4.1190   10.8060   -4.7750 N   0  0  0  0  0  0  0  0  0  0  0  0
   -3.1410   10.9030   -5.0070 H   0  0  0  0  0  0  0  0  0  0  0  0
   -4.9100   10.0870   -5.5920 C   0  0  0  0  0  0  0  0  0  0  0  0
   -6.1170    9.9170   -5.4120 O   0  0  0  0  0  0  0  0  0  0  0  0
   -4.1940    9.4680   -6.8090 C   0  0  0  0  0  0  0  0  0  0  0  0
   -3.4150    8.7820   -6.4710 H   0  0  0  0  0  0  0  0  0  0  0  0
   -4.9050    8.9160   -7.4250 H   0  0  0  0  0  0  0  0  0  0  0  0
   -4.5000   15.2290   -2.7310 O   0  0  0  0  0  0  0  0  0  0  0  0
   -5.6020   16.1610   -2.4460 C   0  0  2  0  0  0  0  0  0  0  0  0
   -6.0420   15.9100   -1.4790 H   0  0  0  0  0  0  0  0  0  0  0  0
   -6.6420   16.0870   -3.4900 O   0  0  0  0  0  0  0  0  0  0  0  0
   -7.8040   16.9860   -3.3220 C   0  0  2  0  0  0  0  0  0  0  0  0
   -8.2850   16.7570   -2.3680 H   0  0  0  0  0  0  0  0  0  0  0  0
   -8.7870   16.6980   -4.4640 C   0  0  0  0  0  0  0  0  0  0  0  0
   -8.3020   16.8280   -5.4320 H   0  0  0  0  0  0  0  0  0  0  0  0
   -9.6420   17.3730   -4.4120 H   0  0  0  0  0  0  0  0  0  0  0  0
   -9.2560   15.3480   -4.3440 O   0  0  0  0  0  0  0  0  0  0  0  0
   -8.5100   14.7460   -4.3880 H   0  0  0  0  0  0  0  0  0  0  0  0
   -7.2850   18.4380   -3.2940 C   0  0  1  0  0  0  0  0  0  0  0  0
   -6.9310   18.7170   -4.2880 H   0  0  0  0  0  0  0  0  0  0  0  0
   -8.3840   19.2900   -2.9260 O   0  0  0  0  0  0  0  0  0  0  0  0
   -8.0880   20.2030   -2.9060 H   0  0  0  0  0  0  0  0  0  0  0  0
   -6.1620   18.6380   -2.2590 C   0  0  2  0  0  0  0  0  0  0  0  0
   -6.5800   18.5820   -1.2510 H   0  0  0  0  0  0  0  0  0  0  0  0
   -5.5900   19.9450   -2.4590 O   0  0  0  0  0  0  0  0  0  0  0  0
   -4.8870   20.0870   -1.8210 H   0  0  0  0  0  0  0  0  0  0  0  0
   -5.0390   17.5930   -2.4060 C   0  0  1  0  0  0  0  0  0  0  0  0
   -4.5090   17.7760   -3.3440 H   0  0  0  0  0  0  0  0  0  0  0  0
   -4.0980   17.7110   -1.2840 N   0  0  0  0  0  0  0  0  0  0  0  0
   -4.5120   17.7550   -0.3640 H   0  0  0  0  0  0  0  0  0  0  0  0
   -2.7570   17.7170   -1.3910 C   0  0  0  0  0  0  0  0  0  0  0  0
   -2.1500   17.6420   -2.4610 O   0  0  0  0  0  0  0  0  0  0  0  0
   -2.0000   17.8170   -0.0530 C   0  0  0  0  0  0  0  0  0  0  0  0
   -2.2020   16.9320    0.5520 H   0  0  0  0  0  0  0  0  0  0  0  0
   -0.9260   17.8840   -0.2310 H   0  0  0  0  0  0  0  0  0  0  0  0
   -2.3210   18.7070    0.4910 H   0  0  0  0  0  0  0  0  0  0  0  0
  2  1  1  0  0  0  0
  3  4  1  6  0  0  0
  3  2  1  0  0  0  0
  3  5  1  0  0  0  0
  6  7  1  6  0  0  0
  6  5  1  0  0  0  0
  6  8  1  0  0  0  0
  8  9  1  0  0  0  0
  8 11  1  0  0  0  0
 10  8  1  0  0  0  0
 11 12  1  0  0  0  0
 13 14  1  1  0  0  0
 13  6  1  0  0  0  0
 15 26  1  0  0  0  0
 16 17  1  6  0  0  0
 16 20  1  0  0  0  0
 16 13  1  0  0  0  0
 18 16  1  0  0  0  0
 19 18  1  0  0  0  0
 20 21  1  1  0  0  0
 20  3  1  0  0  0  0
 22 20  1  0  0  0  0
 23 22  1  0  0  0  0
 24 25  2  0  0  0  0
 24 22  1  0  0  0  0
 26 27  1  0  0  0  0
 26 24  1  0  0  0  0
 28 26  1  0  0  0  0
 29 13  1  0  0  0  0
 29 30  1  0  0  0  0
 30 48  1  0  0  0  0
 30 31  1  1  0  0  0
 32 33  1  0  0  0  0
 32 30  1  0  0  0  0
 33 40  1  0  0  0  0
 33 34  1  1  0  0  0
 35 37  1  0  0  0  0
 35 38  1  0  0  0  0
 35 33  1  0  0  0  0
 36 35  1  0  0  0  0
 39 38  1  0  0  0  0
 40 41  1  6  0  0  0
 40 42  1  0  0  0  0
 40 44  1  0  0  0  0
 42 43  1  0  0  0  0
 44 45  1  1  0  0  0
 46 44  1  0  0  0  0
 46 47  1  0  0  0  0
 48 49  1  6  0  0  0
 48 44  1  0  0  0  0
 48 50  1  0  0  0  0
 50 51  1  0  0  0  0
 52 50  1  0  0  0  0
 52 54  1  0  0  0  0
 53 52  2  0  0  0  0
 54 57  1  0  0  0  0
 54 55  1  0  0  0  0
 56 54  1  0  0  0  0
M  END
