C:\Users\eirik\OneDrive - Norwegian University of Life Sciences\Documents\Masteroppgave\glycam\NAG_kitin\pdb\DGlcpNAcb1-4DGlcpNAcb1-4DGlcpNAcb1-OH_structure_min-gas.pdb DGlcpNAcb1-4DGlcpNAcb1-4DGlcpNAcb1-OH_structure_min-gas.pdb
 OpenBabel01122616553D

 84 86  0  0  1  0  0  0  0  0999 V2000
   -3.5470    9.2900   -1.3060 H   0  0  0  0  0  0  0  0  0  0  0  0
   -4.0650    9.5840   -2.0590 O   0  0  0  0  0  0  0  0  0  0  0  0
   -3.8050   10.9730   -2.3060 C   0  0  2  0  0  0  0  0  0  0  0  0
   -2.7420   11.0960   -2.5190 H   0  0  0  0  0  0  0  0  0  0  0  0
   -4.1510   11.7870   -1.1240 O   0  0  0  0  0  0  0  0  0  0  0  0
   -3.9530   13.2480   -1.2570 C   0  0  2  0  0  0  0  0  0  0  0  0
   -2.9030   13.4400   -1.4890 H   0  0  0  0  0  0  0  0  0  0  0  0
   -4.2950   13.9040    0.0870 C   0  0  0  0  0  0  0  0  0  0  0  0
   -5.3120   13.6540    0.3910 H   0  0  0  0  0  0  0  0  0  0  0  0
   -4.2130   14.9890    0.0140 H   0  0  0  0  0  0  0  0  0  0  0  0
   -3.3710   13.4390    1.0790 O   0  0  0  0  0  0  0  0  0  0  0  0
   -3.4350   12.4840    1.1530 H   0  0  0  0  0  0  0  0  0  0  0  0
   -4.8240   13.7460   -2.4240 C   0  0  2  0  0  0  0  0  0  0  0  0
   -5.8780   13.6400   -2.1550 H   0  0  0  0  0  0  0  0  0  0  0  0
   -3.8060   10.2190   -7.3720 H   0  0  0  0  0  0  0  0  0  0  0  0
   -4.5460   12.9600   -3.7160 C   0  0  2  0  0  0  0  0  0  0  0  0
   -3.5470   13.2100   -4.0800 H   0  0  0  0  0  0  0  0  0  0  0  0
   -5.5160   13.3620   -4.7010 O   0  0  0  0  0  0  0  0  0  0  0  0
   -5.3550   12.8870   -5.5200 H   0  0  0  0  0  0  0  0  0  0  0  0
   -4.6520   11.4360   -3.5090 C   0  0  1  0  0  0  0  0  0  0  0  0
   -5.6970   11.1840   -3.3100 H   0  0  0  0  0  0  0  0  0  0  0  0
   -4.2060   10.7430   -4.7270 N   0  0  0  0  0  0  0  0  0  0  0  0
   -3.2220   10.8150   -4.9390 H   0  0  0  0  0  0  0  0  0  0  0  0
   -5.0000   10.0560   -5.5680 C   0  0  0  0  0  0  0  0  0  0  0  0
   -6.2150    9.9190   -5.4130 O   0  0  0  0  0  0  0  0  0  0  0  0
   -4.2780    9.4340   -6.7790 C   0  0  0  0  0  0  0  0  0  0  0  0
   -3.5160    8.7330   -6.4370 H   0  0  0  0  0  0  0  0  0  0  0  0
   -4.9900    8.8990   -7.4090 H   0  0  0  0  0  0  0  0  0  0  0  0
   -4.4900   15.1600   -2.6720 O   0  0  0  0  0  0  0  0  0  0  0  0
   -5.5570   16.1380   -2.4090 C   0  0  2  0  0  0  0  0  0  0  0  0
   -6.0010   15.9330   -1.4330 H   0  0  0  0  0  0  0  0  0  0  0  0
   -6.6080   16.0670   -3.4460 O   0  0  0  0  0  0  0  0  0  0  0  0
   -7.7040   17.0550   -3.3410 C   0  0  2  0  0  0  0  0  0  0  0  0
   -8.1880   16.9440   -2.3680 H   0  0  0  0  0  0  0  0  0  0  0  0
   -8.7260   16.7530   -4.4440 C   0  0  0  0  0  0  0  0  0  0  0  0
   -8.2530   16.7790   -5.4260 H   0  0  0  0  0  0  0  0  0  0  0  0
   -9.5330   17.4860   -4.4290 H   0  0  0  0  0  0  0  0  0  0  0  0
   -9.2830   15.4520   -4.2160 O   0  0  0  0  0  0  0  0  0  0  0  0
   -8.5810   14.7970   -4.2250 H   0  0  0  0  0  0  0  0  0  0  0  0
   -7.0760   18.4560   -3.4350 C   0  0  2  0  0  0  0  0  0  0  0  0
   -6.6250   18.5780   -4.4240 H   0  0  0  0  0  0  0  0  0  0  0  0
   -2.3260   18.6790    0.5690 H   0  0  0  0  0  0  0  0  0  0  0  0
   -5.9940   18.6530   -2.3620 C   0  0  2  0  0  0  0  0  0  0  0  0
   -6.4620   18.6700   -1.3750 H   0  0  0  0  0  0  0  0  0  0  0  0
   -5.3530   19.9200   -2.5970 O   0  0  0  0  0  0  0  0  0  0  0  0
   -4.6750   20.0640   -1.9320 H   0  0  0  0  0  0  0  0  0  0  0  0
   -4.9280   17.5440   -2.4140 C   0  0  1  0  0  0  0  0  0  0  0  0
   -4.3570   17.6560   -3.3390 H   0  0  0  0  0  0  0  0  0  0  0  0
   -4.0220   17.6690   -1.2640 N   0  0  0  0  0  0  0  0  0  0  0  0
   -4.4650   17.7180   -0.3580 H   0  0  0  0  0  0  0  0  0  0  0  0
   -2.6790   17.6860   -1.3290 C   0  0  0  0  0  0  0  0  0  0  0  0
   -2.0380   17.6130   -2.3800 O   0  0  0  0  0  0  0  0  0  0  0  0
   -1.9660   17.8010    0.0310 C   0  0  0  0  0  0  0  0  0  0  0  0
   -2.1620   16.9080    0.6260 H   0  0  0  0  0  0  0  0  0  0  0  0
   -0.8880   17.8970   -0.1140 H   0  0  0  0  0  0  0  0  0  0  0  0
   -8.1330   19.4640   -3.2230 O   0  0  0  0  0  0  0  0  0  0  0  0
   -8.4910   20.2620   -4.4060 C   0  0  2  0  0  0  0  0  0  0  0  0
   -8.6450   19.5930   -5.2550 H   0  0  0  0  0  0  0  0  0  0  0  0
   -7.4280   21.2300   -4.7350 O   0  0  0  0  0  0  0  0  0  0  0  0
   -7.6700   22.0870   -5.9160 C   0  0  2  0  0  0  0  0  0  0  0  0
   -7.8140   21.4440   -6.7870 H   0  0  0  0  0  0  0  0  0  0  0  0
   -6.4220   22.9520   -6.1300 C   0  0  0  0  0  0  0  0  0  0  0  0
   -6.1990   23.5360   -5.2360 H   0  0  0  0  0  0  0  0  0  0  0  0
   -6.5720   23.6400   -6.9630 H   0  0  0  0  0  0  0  0  0  0  0  0
   -5.3100   22.0980   -6.4300 O   0  0  0  0  0  0  0  0  0  0  0  0
   -5.1720   21.4860   -5.7030 H   0  0  0  0  0  0  0  0  0  0  0  0
   -8.9590   22.8950   -5.6630 C   0  0  1  0  0  0  0  0  0  0  0  0
   -8.7750   23.6390   -4.8850 H   0  0  0  0  0  0  0  0  0  0  0  0
   -9.3040   23.5650   -6.8880 O   0  0  0  0  0  0  0  0  0  0  0  0
  -10.1030   24.0810   -6.7550 H   0  0  0  0  0  0  0  0  0  0  0  0
  -10.1440   21.9960   -5.2630 C   0  0  2  0  0  0  0  0  0  0  0  0
  -10.4720   21.4170   -6.1290 H   0  0  0  0  0  0  0  0  0  0  0  0
  -11.2260   22.8410   -4.8270 O   0  0  0  0  0  0  0  0  0  0  0  0
  -11.9750   22.2970   -4.5750 H   0  0  0  0  0  0  0  0  0  0  0  0
   -9.7880   21.0350   -4.1120 C   0  0  1  0  0  0  0  0  0  0  0  0
   -9.6360   21.6190   -3.2010 H   0  0  0  0  0  0  0  0  0  0  0  0
  -10.8850   20.0800   -3.9010 N   0  0  0  0  0  0  0  0  0  0  0  0
  -11.2160   19.6000   -4.7250 H   0  0  0  0  0  0  0  0  0  0  0  0
  -11.4370   19.7800   -2.7120 C   0  0  0  0  0  0  0  0  0  0  0  0
  -11.0930   20.2880   -1.6430 O   0  0  0  0  0  0  0  0  0  0  0  0
  -12.5580   18.7250   -2.7660 C   0  0  0  0  0  0  0  0  0  0  0  0
  -12.1520   17.7720   -3.1110 H   0  0  0  0  0  0  0  0  0  0  0  0
  -12.9930   18.5840   -1.7750 H   0  0  0  0  0  0  0  0  0  0  0  0
  -13.3440   19.0500   -3.4500 H   0  0  0  0  0  0  0  0  0  0  0  0
  2  1  1  0  0  0  0
  3  4  1  6  0  0  0
  3  2  1  0  0  0  0
  3  5  1  0  0  0  0
  6  7  1  6  0  0  0
  6  5  1  0  0  0  0
  6  8  1  0  0  0  0
  8  9  1  0  0  0  0
  8 11  1  0  0  0  0
 10  8  1  0  0  0  0
 11 12  1  0  0  0  0
 13 14  1  1  0  0  0
 13  6  1  0  0  0  0
 15 26  1  0  0  0  0
 16 17  1  6  0  0  0
 16 20  1  0  0  0  0
 16 13  1  0  0  0  0
 18 16  1  0  0  0  0
 19 18  1  0  0  0  0
 20 21  1  1  0  0  0
 20  3  1  0  0  0  0
 22 20  1  0  0  0  0
 23 22  1  0  0  0  0
 24 25  2  0  0  0  0
 24 22  1  0  0  0  0
 26 27  1  0  0  0  0
 26 24  1  0  0  0  0
 28 26  1  0  0  0  0
 29 13  1  0  0  0  0
 29 30  1  0  0  0  0
 30 31  1  1  0  0  0
 32 33  1  0  0  0  0
 32 30  1  0  0  0  0
 33 34  1  1  0  0  0
 35 37  1  0  0  0  0
 35 38  1  0  0  0  0
 35 33  1  0  0  0  0
 36 35  1  0  0  0  0
 39 38  1  0  0  0  0
 40 41  1  6  0  0  0
 40 33  1  0  0  0  0
 40 56  1  0  0  0  0
 40 43  1  0  0  0  0
 43 44  1  1  0  0  0
 45 43  1  0  0  0  0
 45 46  1  0  0  0  0
 47 48  1  6  0  0  0
 47 30  1  0  0  0  0
 47 43  1  0  0  0  0
 47 49  1  0  0  0  0
 49 50  1  0  0  0  0
 51 49  1  0  0  0  0
 51 53  1  0  0  0  0
 52 51  2  0  0  0  0
 53 42  1  0  0  0  0
 53 54  1  0  0  0  0
 55 53  1  0  0  0  0
 57 58  1  6  0  0  0
 57 75  1  0  0  0  0
 57 56  1  0  0  0  0
 59 57  1  0  0  0  0
 60 61  1  6  0  0  0
 60 67  1  0  0  0  0
 60 59  1  0  0  0  0
 62 60  1  0  0  0  0
 62 63  1  0  0  0  0
 64 62  1  0  0  0  0
 65 62  1  0  0  0  0
 65 66  1  0  0  0  0
 67 71  1  0  0  0  0
 67 68  1  1  0  0  0
 69 70  1  0  0  0  0
 69 67  1  0  0  0  0
 71 72  1  6  0  0  0
 71 73  1  0  0  0  0
 71 75  1  0  0  0  0
 73 74  1  0  0  0  0
 75 77  1  0  0  0  0
 75 76  1  1  0  0  0
 77 79  1  0  0  0  0
 78 77  1  0  0  0  0
 79 80  2  0  0  0  0
 81 79  1  0  0  0  0
 81 83  1  0  0  0  0
 82 81  1  0  0  0  0
 84 81  1  0  0  0  0
M  END
