C:\Users\eirik\OneDrive - Norwegian University of Life Sciences\Documents\Masteroppgave\glycam\NAG_kitin\pdb\DGlcpNAcb1-4DGlcpNAcb1-4DGlcpNAcb1-4DGlcpNAcb1-4DGlcpNAcb1-OH_structure_min-gas.pdb DGlcpNAcb1-4DGlcpNAcb1-4DGlcpNAcb1-4DGlcpNAcb1-4DGlcpNAcb1-OH_structure_min-gas.pdb
 OpenBabel01122616553D

138142  0  0  1  0  0  0  0  0999 V2000
   -3.5040    9.1900   -1.3140 H   0  0  0  0  0  0  0  0  0  0  0  0
   -4.0220    9.4860   -2.0670 O   0  0  0  0  0  0  0  0  0  0  0  0
   -3.7560   10.8750   -2.3130 C   0  0  2  0  0  0  0  0  0  0  0  0
   -2.6920   10.9930   -2.5270 H   0  0  0  0  0  0  0  0  0  0  0  0
   -4.0960   11.6890   -1.1300 O   0  0  0  0  0  0  0  0  0  0  0  0
   -3.8920   13.1500   -1.2620 C   0  0  2  0  0  0  0  0  0  0  0  0
   -2.8420   13.3370   -1.4950 H   0  0  0  0  0  0  0  0  0  0  0  0
   -4.2310   13.8070    0.0820 C   0  0  0  0  0  0  0  0  0  0  0  0
   -5.2490   13.5610    0.3860 H   0  0  0  0  0  0  0  0  0  0  0  0
   -4.1440   14.8910    0.0100 H   0  0  0  0  0  0  0  0  0  0  0  0
   -3.3090   13.3360    1.0740 O   0  0  0  0  0  0  0  0  0  0  0  0
   -3.3790   12.3820    1.1480 H   0  0  0  0  0  0  0  0  0  0  0  0
   -4.7630   13.6510   -2.4280 C   0  0  2  0  0  0  0  0  0  0  0  0
   -5.8170   13.5480   -2.1580 H   0  0  0  0  0  0  0  0  0  0  0  0
   -3.7600   10.1320   -7.3800 H   0  0  0  0  0  0  0  0  0  0  0  0
   -4.4890   12.8650   -3.7210 C   0  0  2  0  0  0  0  0  0  0  0  0
   -3.4900   13.1110   -4.0860 H   0  0  0  0  0  0  0  0  0  0  0  0
   -5.4580   13.2720   -4.7050 O   0  0  0  0  0  0  0  0  0  0  0  0
   -5.3000   12.7970   -5.5240 H   0  0  0  0  0  0  0  0  0  0  0  0
   -4.6020   11.3420   -3.5150 C   0  0  1  0  0  0  0  0  0  0  0  0
   -5.6480   11.0950   -3.3140 H   0  0  0  0  0  0  0  0  0  0  0  0
   -4.1610   10.6470   -4.7340 N   0  0  0  0  0  0  0  0  0  0  0  0
   -3.1750   10.7090   -4.9430 H   0  0  0  0  0  0  0  0  0  0  0  0
   -4.9610    9.9750   -5.5800 C   0  0  0  0  0  0  0  0  0  0  0  0
   -6.1790    9.8530   -5.4290 O   0  0  0  0  0  0  0  0  0  0  0  0
   -4.2440    9.3500   -6.7930 C   0  0  0  0  0  0  0  0  0  0  0  0
   -3.4920    8.6370   -6.4520 H   0  0  0  0  0  0  0  0  0  0  0  0
   -4.9610    8.8270   -7.4280 H   0  0  0  0  0  0  0  0  0  0  0  0
   -4.4250   15.0650   -2.6760 O   0  0  0  0  0  0  0  0  0  0  0  0
   -5.4900   16.0440   -2.4090 C   0  0  2  0  0  0  0  0  0  0  0  0
   -5.9310   15.8390   -1.4320 H   0  0  0  0  0  0  0  0  0  0  0  0
   -6.5450   15.9750   -3.4420 O   0  0  0  0  0  0  0  0  0  0  0  0
   -7.6440   16.9590   -3.3250 C   0  0  2  0  0  0  0  0  0  0  0  0
   -8.1220   16.8390   -2.3510 H   0  0  0  0  0  0  0  0  0  0  0  0
   -8.6700   16.6620   -4.4250 C   0  0  0  0  0  0  0  0  0  0  0  0
   -8.2020   16.6970   -5.4100 H   0  0  0  0  0  0  0  0  0  0  0  0
   -9.4790   17.3930   -4.4000 H   0  0  0  0  0  0  0  0  0  0  0  0
   -9.2220   15.3570   -4.2050 O   0  0  0  0  0  0  0  0  0  0  0  0
   -8.5180   14.7050   -4.2230 H   0  0  0  0  0  0  0  0  0  0  0  0
   -7.0220   18.3630   -3.4130 C   0  0  2  0  0  0  0  0  0  0  0  0
   -6.5870   18.4990   -4.4070 H   0  0  0  0  0  0  0  0  0  0  0  0
   -2.2630   18.6050    0.5650 H   0  0  0  0  0  0  0  0  0  0  0  0
   -5.9280   18.5570   -2.3520 C   0  0  2  0  0  0  0  0  0  0  0  0
   -6.3850   18.5700   -1.3600 H   0  0  0  0  0  0  0  0  0  0  0  0
   -5.2900   19.8250   -2.5890 O   0  0  0  0  0  0  0  0  0  0  0  0
   -4.6060   19.9680   -1.9310 H   0  0  0  0  0  0  0  0  0  0  0  0
   -4.8610   17.4490   -2.4170 C   0  0  1  0  0  0  0  0  0  0  0  0
   -4.2980   17.5640   -3.3460 H   0  0  0  0  0  0  0  0  0  0  0  0
   -3.9470   17.5720   -1.2730 N   0  0  0  0  0  0  0  0  0  0  0  0
   -4.3820   17.5840   -0.3620 H   0  0  0  0  0  0  0  0  0  0  0  0
   -2.6060   17.6410   -1.3500 C   0  0  0  0  0  0  0  0  0  0  0  0
   -1.9740   17.6190   -2.4080 O   0  0  0  0  0  0  0  0  0  0  0  0
   -1.8840   17.7470    0.0060 C   0  0  0  0  0  0  0  0  0  0  0  0
   -2.0510   16.8380    0.5850 H   0  0  0  0  0  0  0  0  0  0  0  0
   -0.8110   17.8760   -0.1460 H   0  0  0  0  0  0  0  0  0  0  0  0
   -8.0800   19.3620   -3.1700 O   0  0  0  0  0  0  0  0  0  0  0  0
   -8.4580   20.1850   -4.3290 C   0  0  2  0  0  0  0  0  0  0  0  0
   -8.6470   19.5350   -5.1850 H   0  0  0  0  0  0  0  0  0  0  0  0
   -7.3870   21.1430   -4.6730 O   0  0  0  0  0  0  0  0  0  0  0  0
   -7.6680   22.0580   -5.8000 C   0  0  2  0  0  0  0  0  0  0  0  0
   -7.8940   21.4640   -6.6890 H   0  0  0  0  0  0  0  0  0  0  0  0
   -6.4080   22.8920   -6.0650 C   0  0  0  0  0  0  0  0  0  0  0  0
   -6.1110   23.4370   -5.1690 H   0  0  0  0  0  0  0  0  0  0  0  0
   -6.5870   23.6110   -6.8650 H   0  0  0  0  0  0  0  0  0  0  0  0
   -5.3470   22.0140   -6.4650 O   0  0  0  0  0  0  0  0  0  0  0  0
   -5.1830   21.3740   -5.7690 H   0  0  0  0  0  0  0  0  0  0  0  0
   -8.9040   22.8930   -5.4240 C   0  0  2  0  0  0  0  0  0  0  0  0
   -8.6590   23.5300   -4.5700 H   0  0  0  0  0  0  0  0  0  0  0  0
  -13.3240   19.0090   -3.4290 H   0  0  0  0  0  0  0  0  0  0  0  0
  -10.0980   21.9960   -5.0600 C   0  0  2  0  0  0  0  0  0  0  0  0
  -10.4460   21.4780   -5.9560 H   0  0  0  0  0  0  0  0  0  0  0  0
  -11.1560   22.8360   -4.5650 O   0  0  0  0  0  0  0  0  0  0  0  0
  -11.9160   22.2930   -4.3390 H   0  0  0  0  0  0  0  0  0  0  0  0
   -9.7370   20.9660   -3.9730 C   0  0  1  0  0  0  0  0  0  0  0  0
   -9.5610   21.4970   -3.0350 H   0  0  0  0  0  0  0  0  0  0  0  0
  -10.8460   20.0180   -3.7980 N   0  0  0  0  0  0  0  0  0  0  0  0
  -11.1650   19.5540   -4.6370 H   0  0  0  0  0  0  0  0  0  0  0  0
  -11.4330   19.7130   -2.6280 C   0  0  0  0  0  0  0  0  0  0  0  0
  -11.1120   20.2070   -1.5450 O   0  0  0  0  0  0  0  0  0  0  0  0
  -12.5640   18.6720   -2.7220 C   0  0  0  0  0  0  0  0  0  0  0  0
  -12.1590   17.7160   -3.0580 H   0  0  0  0  0  0  0  0  0  0  0  0
  -13.0320   18.5320   -1.7460 H   0  0  0  0  0  0  0  0  0  0  0  0
   -9.2860   23.7140   -6.5880 O   0  0  0  0  0  0  0  0  0  0  0  0
   -9.0730   25.1630   -6.4490 C   0  0  2  0  0  0  0  0  0  0  0  0
   -8.0600   25.3440   -6.0860 H   0  0  0  0  0  0  0  0  0  0  0  0
  -10.0410   25.7510   -5.5000 O   0  0  0  0  0  0  0  0  0  0  0  0
   -9.9650   27.2160   -5.3130 C   0  0  2  0  0  0  0  0  0  0  0  0
   -8.9580   27.4780   -4.9800 H   0  0  0  0  0  0  0  0  0  0  0  0
  -10.9690   27.6110   -4.2230 C   0  0  0  0  0  0  0  0  0  0  0  0
  -11.9760   27.2910   -4.4920 H   0  0  0  0  0  0  0  0  0  0  0  0
  -10.9750   28.6920   -4.0830 H   0  0  0  0  0  0  0  0  0  0  0  0
  -10.5830   26.9890   -2.9900 O   0  0  0  0  0  0  0  0  0  0  0  0
  -10.5700   26.0360   -3.1040 H   0  0  0  0  0  0  0  0  0  0  0  0
  -10.2300   27.8710   -6.6800 C   0  0  2  0  0  0  0  0  0  0  0  0
  -11.2520   27.6420   -6.9930 H   0  0  0  0  0  0  0  0  0  0  0  0
   -6.5700   25.0960  -10.8720 H   0  0  0  0  0  0  0  0  0  0  0  0
   -9.2510   27.3520   -7.7460 C   0  0  2  0  0  0  0  0  0  0  0  0
   -8.2440   27.7040   -7.5130 H   0  0  0  0  0  0  0  0  0  0  0  0
   -9.6510   27.8870   -9.0210 O   0  0  0  0  0  0  0  0  0  0  0  0
   -9.0470   27.5780   -9.7010 H   0  0  0  0  0  0  0  0  0  0  0  0
   -9.2580   25.8140   -7.8320 C   0  0  1  0  0  0  0  0  0  0  0  0
  -10.2220   25.4930   -8.2320 H   0  0  0  0  0  0  0  0  0  0  0  0
   -8.1830   25.3600   -8.7250 N   0  0  0  0  0  0  0  0  0  0  0  0
   -7.2600   25.7140   -8.5180 H   0  0  0  0  0  0  0  0  0  0  0  0
   -8.3330   24.5040   -9.7500 C   0  0  0  0  0  0  0  0  0  0  0  0
   -9.4090   23.9990  -10.0770 O   0  0  0  0  0  0  0  0  0  0  0  0
   -7.0360   24.1760  -10.5160 C   0  0  0  0  0  0  0  0  0  0  0  0
   -6.3420   23.6520   -9.8570 H   0  0  0  0  0  0  0  0  0  0  0  0
   -7.2550   23.5390  -11.3740 H   0  0  0  0  0  0  0  0  0  0  0  0
  -10.0440   29.3280   -6.5490 O   0  0  0  0  0  0  0  0  0  0  0  0
  -11.2750   30.1310   -6.6330 C   0  0  2  0  0  0  0  0  0  0  0  0
  -12.0370   29.6850   -5.9910 H   0  0  0  0  0  0  0  0  0  0  0  0
  -11.7770   30.1870   -8.0190 O   0  0  0  0  0  0  0  0  0  0  0  0
  -13.0190   30.9610   -8.2280 C   0  0  2  0  0  0  0  0  0  0  0  0
  -13.8070   30.5280   -7.6080 H   0  0  0  0  0  0  0  0  0  0  0  0
  -13.4120   30.8250   -9.7050 C   0  0  0  0  0  0  0  0  0  0  0  0
  -12.6010   31.1630  -10.3520 H   0  0  0  0  0  0  0  0  0  0  0  0
  -14.2980   31.4220   -9.9220 H   0  0  0  0  0  0  0  0  0  0  0  0
  -13.7010   29.4490   -9.9840 O   0  0  0  0  0  0  0  0  0  0  0  0
  -12.9260   28.9140   -9.7940 H   0  0  0  0  0  0  0  0  0  0  0  0
  -12.7590   32.4130   -7.7790 C   0  0  1  0  0  0  0  0  0  0  0  0
  -12.0770   32.8950   -8.4820 H   0  0  0  0  0  0  0  0  0  0  0  0
  -14.0190   33.1080   -7.7880 O   0  0  0  0  0  0  0  0  0  0  0  0
  -13.8830   34.0180   -7.5140 H   0  0  0  0  0  0  0  0  0  0  0  0
  -12.1840   32.4900   -6.3510 C   0  0  2  0  0  0  0  0  0  0  0  0
  -12.9610   32.2230   -5.6310 H   0  0  0  0  0  0  0  0  0  0  0  0
  -11.7620   33.8450   -6.1060 O   0  0  0  0  0  0  0  0  0  0  0  0
  -11.4010   33.9110   -5.2190 H   0  0  0  0  0  0  0  0  0  0  0  0
  -10.9690   31.5620   -6.1590 C   0  0  1  0  0  0  0  0  0  0  0  0
  -10.1360   31.9470   -6.7530 H   0  0  0  0  0  0  0  0  0  0  0  0
  -10.5830   31.5320   -4.7420 N   0  0  0  0  0  0  0  0  0  0  0  0
  -11.3310   31.3590   -4.0850 H   0  0  0  0  0  0  0  0  0  0  0  0
   -9.3300   31.6710   -4.2730 C   0  0  0  0  0  0  0  0  0  0  0  0
   -8.3440   31.8610   -4.9870 O   0  0  0  0  0  0  0  0  0  0  0  0
   -9.1960   31.5700   -2.7420 C   0  0  0  0  0  0  0  0  0  0  0  0
   -9.4830   30.5710   -2.4110 H   0  0  0  0  0  0  0  0  0  0  0  0
   -8.1640   31.7570   -2.4400 H   0  0  0  0  0  0  0  0  0  0  0  0
   -9.8410   32.3080   -2.2610 H   0  0  0  0  0  0  0  0  0  0  0  0
  2  1  1  0  0  0  0
  3  4  1  6  0  0  0
  3  2  1  0  0  0  0
  3  5  1  0  0  0  0
  6  7  1  6  0  0  0
  6  5  1  0  0  0  0
  6  8  1  0  0  0  0
  8  9  1  0  0  0  0
  8 11  1  0  0  0  0
 10  8  1  0  0  0  0
 11 12  1  0  0  0  0
 13 14  1  1  0  0  0
 13  6  1  0  0  0  0
 15 26  1  0  0  0  0
 16 17  1  6  0  0  0
 16 20  1  0  0  0  0
 16 13  1  0  0  0  0
 18 16  1  0  0  0  0
 19 18  1  0  0  0  0
 20 21  1  1  0  0  0
 20  3  1  0  0  0  0
 22 20  1  0  0  0  0
 23 22  1  0  0  0  0
 24 25  2  0  0  0  0
 24 22  1  0  0  0  0
 26 27  1  0  0  0  0
 26 24  1  0  0  0  0
 28 26  1  0  0  0  0
 29 13  1  0  0  0  0
 29 30  1  0  0  0  0
 30 31  1  1  0  0  0
 32 33  1  0  0  0  0
 32 30  1  0  0  0  0
 33 34  1  1  0  0  0
 35 37  1  0  0  0  0
 35 38  1  0  0  0  0
 35 33  1  0  0  0  0
 36 35  1  0  0  0  0
 39 38  1  0  0  0  0
 40 41  1  6  0  0  0
 40 33  1  0  0  0  0
 40 56  1  0  0  0  0
 40 43  1  0  0  0  0
 43 44  1  1  0  0  0
 45 43  1  0  0  0  0
 45 46  1  0  0  0  0
 47 48  1  6  0  0  0
 47 30  1  0  0  0  0
 47 43  1  0  0  0  0
 47 49  1  0  0  0  0
 49 50  1  0  0  0  0
 51 49  1  0  0  0  0
 51 53  1  0  0  0  0
 52 51  2  0  0  0  0
 53 42  1  0  0  0  0
 53 54  1  0  0  0  0
 55 53  1  0  0  0  0
 57 58  1  6  0  0  0
 57 74  1  0  0  0  0
 57 56  1  0  0  0  0
 59 57  1  0  0  0  0
 60 61  1  6  0  0  0
 60 67  1  0  0  0  0
 60 59  1  0  0  0  0
 62 60  1  0  0  0  0
 62 63  1  0  0  0  0
 64 62  1  0  0  0  0
 65 62  1  0  0  0  0
 65 66  1  0  0  0  0
 67 70  1  0  0  0  0
 67 68  1  1  0  0  0
 69 80  1  0  0  0  0
 70 71  1  6  0  0  0
 70 72  1  0  0  0  0
 70 74  1  0  0  0  0
 72 73  1  0  0  0  0
 74 76  1  0  0  0  0
 74 75  1  1  0  0  0
 76 78  1  0  0  0  0
 77 76  1  0  0  0  0
 78 79  2  0  0  0  0
 80 78  1  0  0  0  0
 80 82  1  0  0  0  0
 81 80  1  0  0  0  0
 83 84  1  0  0  0  0
 83 67  1  0  0  0  0
 84 85  1  1  0  0  0
 84 86  1  0  0  0  0
 86 87  1  0  0  0  0
 87 88  1  1  0  0  0
 87 89  1  0  0  0  0
 89 91  1  0  0  0  0
 89 92  1  0  0  0  0
 90 89  1  0  0  0  0
 93 92  1  0  0  0  0
 94 95  1  6  0  0  0
 94110  1  0  0  0  0
 94 87  1  0  0  0  0
 96107  1  0  0  0  0
 97 98  1  1  0  0  0
 97 94  1  0  0  0  0
 99 97  1  0  0  0  0
100 99  1  0  0  0  0
101102  1  6  0  0  0
101 97  1  0  0  0  0
101 84  1  0  0  0  0
103104  1  0  0  0  0
103101  1  0  0  0  0
105103  1  0  0  0  0
106105  2  0  0  0  0
107108  1  0  0  0  0
107105  1  0  0  0  0
109107  1  0  0  0  0
111110  1  0  0  0  0
111129  1  0  0  0  0
111112  1  1  0  0  0
113111  1  0  0  0  0
114113  1  0  0  0  0
114121  1  0  0  0  0
114115  1  1  0  0  0
116114  1  0  0  0  0
117116  1  0  0  0  0
118116  1  0  0  0  0
119120  1  0  0  0  0
119116  1  0  0  0  0
121122  1  6  0  0  0
121125  1  0  0  0  0
123121  1  0  0  0  0
123124  1  0  0  0  0
125129  1  0  0  0  0
125127  1  0  0  0  0
125126  1  1  0  0  0
127128  1  0  0  0  0
129130  1  6  0  0  0
129131  1  0  0  0  0
131133  1  0  0  0  0
131132  1  0  0  0  0
133135  1  0  0  0  0
134133  2  0  0  0  0
135137  1  0  0  0  0
135136  1  0  0  0  0
135138  1  0  0  0  0
M  END
